
---------- Begin Simulation Statistics ----------
final_tick                                   65809000                       # Number of ticks from beginning of simulation (restored from checkpoints and never reset)
host_inst_rate                                  87972                       # Simulator instruction rate (inst/s)
host_mem_usage                                2217464                       # Number of bytes of host memory used
host_op_rate                                   174440                       # Simulator op (including micro ops) rate (op/s)
host_seconds                                     0.37                       # Real time elapsed on the host
host_tick_rate                               83507275                       # Simulator tick rate (ticks/s)
sim_freq                                 1000000000000                       # Frequency of simulated ticks
sim_insts                                       32571                       # Number of instructions simulated
sim_ops                                         64626                       # Number of ops (including micro ops) simulated
sim_seconds                                  0.000031                       # Number of seconds simulated
sim_ticks                                    30942000                       # Number of ticks simulated
system.cpu.cc_regfile_reads                     10254                       # number of cc regfile reads
system.cpu.cc_regfile_writes                     8253                       # number of cc regfile writes
system.cpu.committedInsts                       24662                       # Number of Instructions Simulated
system.cpu.committedOps                         49305                       # Number of Ops (including micro ops) Simulated
system.cpu.cpi                               1.254643                       # CPI: Cycles Per Instruction
system.cpu.cpi_total                         1.254643                       # CPI: Total CPI of All Threads
system.cpu.fp_regfile_reads                    151610                       # number of floating regfile reads
system.cpu.fp_regfile_writes                    59427                       # number of floating regfile writes
system.cpu.idleCycles                             114                       # Total number of cycles that the CPU has spent unscheduled due to idling
system.cpu.iew.branchMispredicts                 2048                       # Number of branch mispredicts detected at execute
system.cpu.iew.exec_branches                     2054                       # Number of branches executed
system.cpu.iew.exec_nop                             0                       # number of nop insts executed
system.cpu.iew.exec_rate                     2.586258                       # Inst execution rate
system.cpu.iew.exec_refs                           23                       # number of memory reference insts executed
system.cpu.iew.exec_stores                          7                       # Number of stores executed
system.cpu.iew.exec_swp                             0                       # number of swp insts executed
system.cpu.iew.iewBlockCycles                    4097                       # Number of cycles IEW is blocking
system.cpu.iew.iewDispLoadInsts                    16                       # Number of dispatched load instructions
system.cpu.iew.iewDispNonSpecInsts                  1                       # Number of dispatched non-speculative instructions
system.cpu.iew.iewDispSquashedInsts                 0                       # Number of squashed instructions skipped by dispatch
system.cpu.iew.iewDispStoreInsts                    4                       # Number of dispatched store instructions
system.cpu.iew.iewDispatchedInsts               98428                       # Number of instructions dispatched to IQ
system.cpu.iew.iewExecLoadInsts                    16                       # Number of load instructions executed
system.cpu.iew.iewExecSquashedInsts              2058                       # Number of squashed instructions skipped in execute
system.cpu.iew.iewExecutedInsts                 80024                       # Number of executed instructions
system.cpu.iew.iewIQFullEvents                      0                       # Number of times the IQ has become full, causing a stall
system.cpu.iew.iewIdleCycles                        0                       # Number of cycles IEW is idle
system.cpu.iew.iewLSQFullEvents                     0                       # Number of times the LSQ has become full, causing a stall
system.cpu.iew.iewSquashCycles                   2049                       # Number of cycles IEW is squashing
system.cpu.iew.iewUnblockCycles                     0                       # Number of cycles IEW is unblocking
system.cpu.iew.memOrderViolationEvents              1                       # Number of memory order violations
system.cpu.iew.predictedNotTakenIncorrect         2048                       # Number of branches that were predicted not taken incorrectly
system.cpu.iew.predictedTakenIncorrect              0                       # Number of branches that were predicted taken incorrectly
system.cpu.iew.wb_consumers                     37047                       # num instructions consuming a value
system.cpu.iew.wb_count                         80024                       # cumulative count of insts written-back
system.cpu.iew.wb_fanout                     0.832186                       # average fanout of values written-back
system.cpu.iew.wb_producers                     30830                       # num instructions producing a value
system.cpu.iew.wb_rate                       2.586258                       # insts written-back per cycle
system.cpu.iew.wb_sent                          80024                       # cumulative count of insts sent to commit
system.cpu.int_regfile_reads                    20683                       # number of integer regfile reads
system.cpu.int_regfile_writes                   18534                       # number of integer regfile writes
system.cpu.ipc                               0.797040                       # IPC: Instructions Per Cycle
system.cpu.ipc_total                         0.797040                       # IPC: Total IPC of All Threads
system.cpu.iq.FU_type_0::No_OpClass                 2      0.00%      0.00% # Type of FU issued
system.cpu.iq.FU_type_0::IntAlu                 32869     40.05%     40.05% # Type of FU issued
system.cpu.iq.FU_type_0::IntMult                    1      0.00%     40.05% # Type of FU issued
system.cpu.iq.FU_type_0::IntDiv                     0      0.00%     40.05% # Type of FU issued
system.cpu.iq.FU_type_0::FloatAdd                   2      0.00%     40.05% # Type of FU issued
system.cpu.iq.FU_type_0::FloatCmp                   0      0.00%     40.05% # Type of FU issued
system.cpu.iq.FU_type_0::FloatCvt                   0      0.00%     40.05% # Type of FU issued
system.cpu.iq.FU_type_0::FloatMult                  0      0.00%     40.05% # Type of FU issued
system.cpu.iq.FU_type_0::FloatMultAcc               0      0.00%     40.05% # Type of FU issued
system.cpu.iq.FU_type_0::FloatDiv                   0      0.00%     40.05% # Type of FU issued
system.cpu.iq.FU_type_0::FloatMisc                  0      0.00%     40.05% # Type of FU issued
system.cpu.iq.FU_type_0::FloatSqrt                  0      0.00%     40.05% # Type of FU issued
system.cpu.iq.FU_type_0::SimdAdd                24578     29.95%     70.00% # Type of FU issued
system.cpu.iq.FU_type_0::SimdAddAcc                 0      0.00%     70.00% # Type of FU issued
system.cpu.iq.FU_type_0::SimdAlu                    2      0.00%     70.00% # Type of FU issued
system.cpu.iq.FU_type_0::SimdCmp                    0      0.00%     70.00% # Type of FU issued
system.cpu.iq.FU_type_0::SimdCvt                    0      0.00%     70.00% # Type of FU issued
system.cpu.iq.FU_type_0::SimdMisc               24599     29.97%     99.97% # Type of FU issued
system.cpu.iq.FU_type_0::SimdMult                   0      0.00%     99.97% # Type of FU issued
system.cpu.iq.FU_type_0::SimdMultAcc                0      0.00%     99.97% # Type of FU issued
system.cpu.iq.FU_type_0::SimdShift                  0      0.00%     99.97% # Type of FU issued
system.cpu.iq.FU_type_0::SimdShiftAcc               0      0.00%     99.97% # Type of FU issued
system.cpu.iq.FU_type_0::SimdDiv                    0      0.00%     99.97% # Type of FU issued
system.cpu.iq.FU_type_0::SimdSqrt                   0      0.00%     99.97% # Type of FU issued
system.cpu.iq.FU_type_0::SimdFloatAdd               0      0.00%     99.97% # Type of FU issued
system.cpu.iq.FU_type_0::SimdFloatAlu               0      0.00%     99.97% # Type of FU issued
system.cpu.iq.FU_type_0::SimdFloatCmp               0      0.00%     99.97% # Type of FU issued
system.cpu.iq.FU_type_0::SimdFloatCvt               0      0.00%     99.97% # Type of FU issued
system.cpu.iq.FU_type_0::SimdFloatDiv               0      0.00%     99.97% # Type of FU issued
system.cpu.iq.FU_type_0::SimdFloatMisc              0      0.00%     99.97% # Type of FU issued
system.cpu.iq.FU_type_0::SimdFloatMult              0      0.00%     99.97% # Type of FU issued
system.cpu.iq.FU_type_0::SimdFloatMultAcc            0      0.00%     99.97% # Type of FU issued
system.cpu.iq.FU_type_0::SimdFloatSqrt              0      0.00%     99.97% # Type of FU issued
system.cpu.iq.FU_type_0::SimdReduceAdd              0      0.00%     99.97% # Type of FU issued
system.cpu.iq.FU_type_0::SimdReduceAlu              0      0.00%     99.97% # Type of FU issued
system.cpu.iq.FU_type_0::SimdReduceCmp              0      0.00%     99.97% # Type of FU issued
system.cpu.iq.FU_type_0::SimdFloatReduceAdd            0      0.00%     99.97% # Type of FU issued
system.cpu.iq.FU_type_0::SimdFloatReduceCmp            0      0.00%     99.97% # Type of FU issued
system.cpu.iq.FU_type_0::SimdAes                    0      0.00%     99.97% # Type of FU issued
system.cpu.iq.FU_type_0::SimdAesMix                 0      0.00%     99.97% # Type of FU issued
system.cpu.iq.FU_type_0::SimdSha1Hash               0      0.00%     99.97% # Type of FU issued
system.cpu.iq.FU_type_0::SimdSha1Hash2              0      0.00%     99.97% # Type of FU issued
system.cpu.iq.FU_type_0::SimdSha256Hash             0      0.00%     99.97% # Type of FU issued
system.cpu.iq.FU_type_0::SimdSha256Hash2            0      0.00%     99.97% # Type of FU issued
system.cpu.iq.FU_type_0::SimdShaSigma2              0      0.00%     99.97% # Type of FU issued
system.cpu.iq.FU_type_0::SimdShaSigma3              0      0.00%     99.97% # Type of FU issued
system.cpu.iq.FU_type_0::SimdPredAlu                0      0.00%     99.97% # Type of FU issued
system.cpu.iq.FU_type_0::MemRead                    8      0.01%     99.98% # Type of FU issued
system.cpu.iq.FU_type_0::MemWrite                   6      0.01%     99.99% # Type of FU issued
system.cpu.iq.FU_type_0::FloatMemRead               8      0.01%    100.00% # Type of FU issued
system.cpu.iq.FU_type_0::FloatMemWrite              0      0.00%    100.00% # Type of FU issued
system.cpu.iq.FU_type_0::IprAccess                  0      0.00%    100.00% # Type of FU issued
system.cpu.iq.FU_type_0::InstPrefetch               0      0.00%    100.00% # Type of FU issued
system.cpu.iq.FU_type_0::total                  82075                       # Type of FU issued
system.cpu.iq.fp_alu_accesses                   71734                       # Number of floating point alu accesses
system.cpu.iq.fp_inst_queue_reads              141414                       # Number of floating instruction queue reads
system.cpu.iq.fp_inst_queue_wakeup_accesses        67627                       # Number of floating instruction queue wakeup accesses
system.cpu.iq.fp_inst_queue_writes             131060                       # Number of floating instruction queue writes
system.cpu.iq.fu_busy_cnt                        4105                       # FU busy when requested
system.cpu.iq.fu_busy_rate                   0.050015                       # FU busy rate (busy events/executed inst)
system.cpu.iq.fu_full::No_OpClass                   0      0.00%      0.00% # attempts to use FU when none available
system.cpu.iq.fu_full::IntAlu                    2050     49.94%     49.94% # attempts to use FU when none available
system.cpu.iq.fu_full::IntMult                      0      0.00%     49.94% # attempts to use FU when none available
system.cpu.iq.fu_full::IntDiv                       0      0.00%     49.94% # attempts to use FU when none available
system.cpu.iq.fu_full::FloatAdd                     0      0.00%     49.94% # attempts to use FU when none available
system.cpu.iq.fu_full::FloatCmp                     0      0.00%     49.94% # attempts to use FU when none available
system.cpu.iq.fu_full::FloatCvt                     0      0.00%     49.94% # attempts to use FU when none available
system.cpu.iq.fu_full::FloatMult                    0      0.00%     49.94% # attempts to use FU when none available
system.cpu.iq.fu_full::FloatMultAcc                 0      0.00%     49.94% # attempts to use FU when none available
system.cpu.iq.fu_full::FloatDiv                     0      0.00%     49.94% # attempts to use FU when none available
system.cpu.iq.fu_full::FloatMisc                    0      0.00%     49.94% # attempts to use FU when none available
system.cpu.iq.fu_full::FloatSqrt                    0      0.00%     49.94% # attempts to use FU when none available
system.cpu.iq.fu_full::SimdAdd                   2048     49.89%     99.83% # attempts to use FU when none available
system.cpu.iq.fu_full::SimdAddAcc                   0      0.00%     99.83% # attempts to use FU when none available
system.cpu.iq.fu_full::SimdAlu                      0      0.00%     99.83% # attempts to use FU when none available
system.cpu.iq.fu_full::SimdCmp                      0      0.00%     99.83% # attempts to use FU when none available
system.cpu.iq.fu_full::SimdCvt                      0      0.00%     99.83% # attempts to use FU when none available
system.cpu.iq.fu_full::SimdMisc                     7      0.17%    100.00% # attempts to use FU when none available
system.cpu.iq.fu_full::SimdMult                     0      0.00%    100.00% # attempts to use FU when none available
system.cpu.iq.fu_full::SimdMultAcc                  0      0.00%    100.00% # attempts to use FU when none available
system.cpu.iq.fu_full::SimdShift                    0      0.00%    100.00% # attempts to use FU when none available
system.cpu.iq.fu_full::SimdShiftAcc                 0      0.00%    100.00% # attempts to use FU when none available
system.cpu.iq.fu_full::SimdDiv                      0      0.00%    100.00% # attempts to use FU when none available
system.cpu.iq.fu_full::SimdSqrt                     0      0.00%    100.00% # attempts to use FU when none available
system.cpu.iq.fu_full::SimdFloatAdd                 0      0.00%    100.00% # attempts to use FU when none available
system.cpu.iq.fu_full::SimdFloatAlu                 0      0.00%    100.00% # attempts to use FU when none available
system.cpu.iq.fu_full::SimdFloatCmp                 0      0.00%    100.00% # attempts to use FU when none available
system.cpu.iq.fu_full::SimdFloatCvt                 0      0.00%    100.00% # attempts to use FU when none available
system.cpu.iq.fu_full::SimdFloatDiv                 0      0.00%    100.00% # attempts to use FU when none available
system.cpu.iq.fu_full::SimdFloatMisc                0      0.00%    100.00% # attempts to use FU when none available
system.cpu.iq.fu_full::SimdFloatMult                0      0.00%    100.00% # attempts to use FU when none available
system.cpu.iq.fu_full::SimdFloatMultAcc             0      0.00%    100.00% # attempts to use FU when none available
system.cpu.iq.fu_full::SimdFloatSqrt                0      0.00%    100.00% # attempts to use FU when none available
system.cpu.iq.fu_full::SimdReduceAdd                0      0.00%    100.00% # attempts to use FU when none available
system.cpu.iq.fu_full::SimdReduceAlu                0      0.00%    100.00% # attempts to use FU when none available
system.cpu.iq.fu_full::SimdReduceCmp                0      0.00%    100.00% # attempts to use FU when none available
system.cpu.iq.fu_full::SimdFloatReduceAdd            0      0.00%    100.00% # attempts to use FU when none available
system.cpu.iq.fu_full::SimdFloatReduceCmp            0      0.00%    100.00% # attempts to use FU when none available
system.cpu.iq.fu_full::SimdAes                      0      0.00%    100.00% # attempts to use FU when none available
system.cpu.iq.fu_full::SimdAesMix                   0      0.00%    100.00% # attempts to use FU when none available
system.cpu.iq.fu_full::SimdSha1Hash                 0      0.00%    100.00% # attempts to use FU when none available
system.cpu.iq.fu_full::SimdSha1Hash2                0      0.00%    100.00% # attempts to use FU when none available
system.cpu.iq.fu_full::SimdSha256Hash               0      0.00%    100.00% # attempts to use FU when none available
system.cpu.iq.fu_full::SimdSha256Hash2              0      0.00%    100.00% # attempts to use FU when none available
system.cpu.iq.fu_full::SimdShaSigma2                0      0.00%    100.00% # attempts to use FU when none available
system.cpu.iq.fu_full::SimdShaSigma3                0      0.00%    100.00% # attempts to use FU when none available
system.cpu.iq.fu_full::SimdPredAlu                  0      0.00%    100.00% # attempts to use FU when none available
system.cpu.iq.fu_full::MemRead                      0      0.00%    100.00% # attempts to use FU when none available
system.cpu.iq.fu_full::MemWrite                     0      0.00%    100.00% # attempts to use FU when none available
system.cpu.iq.fu_full::FloatMemRead                 0      0.00%    100.00% # attempts to use FU when none available
system.cpu.iq.fu_full::FloatMemWrite                0      0.00%    100.00% # attempts to use FU when none available
system.cpu.iq.fu_full::IprAccess                    0      0.00%    100.00% # attempts to use FU when none available
system.cpu.iq.fu_full::InstPrefetch                 0      0.00%    100.00% # attempts to use FU when none available
system.cpu.iq.int_alu_accesses                  14444                       # Number of integer alu accesses
system.cpu.iq.int_inst_queue_reads              57678                       # Number of integer instruction queue reads
system.cpu.iq.int_inst_queue_wakeup_accesses        12397                       # Number of integer instruction queue wakeup accesses
system.cpu.iq.int_inst_queue_writes             16510                       # Number of integer instruction queue writes
system.cpu.iq.iqInstsAdded                      98427                       # Number of instructions added to the IQ (excludes non-spec)
system.cpu.iq.iqInstsIssued                     82075                       # Number of instructions issued
system.cpu.iq.iqNonSpecInstsAdded                   1                       # Number of non-speculative instructions added to the IQ
system.cpu.iq.iqSquashedInstsExamined           49141                       # Number of squashed instructions iterated over during squash; mainly for profiling
system.cpu.iq.iqSquashedInstsIssued                 2                       # Number of squashed instructions issued
system.cpu.iq.iqSquashedOperandsExamined        32719                       # Number of squashed operands that are examined and possibly removed from graph
system.cpu.iq.issued_per_cycle::samples         30828                       # Number of insts issued each cycle
system.cpu.iq.issued_per_cycle::mean         2.662352                       # Number of insts issued each cycle
system.cpu.iq.issued_per_cycle::stdev        2.890080                       # Number of insts issued each cycle
system.cpu.iq.issued_per_cycle::underflows            0      0.00%      0.00% # Number of insts issued each cycle
system.cpu.iq.issued_per_cycle::0               16455     53.38%     53.38% # Number of insts issued each cycle
system.cpu.iq.issued_per_cycle::1                   8      0.03%     53.40% # Number of insts issued each cycle
system.cpu.iq.issued_per_cycle::2                   2      0.01%     53.41% # Number of insts issued each cycle
system.cpu.iq.issued_per_cycle::3                   6      0.02%     53.43% # Number of insts issued each cycle
system.cpu.iq.issued_per_cycle::4                   6      0.02%     53.45% # Number of insts issued each cycle
system.cpu.iq.issued_per_cycle::5                6146     19.94%     73.38% # Number of insts issued each cycle
system.cpu.iq.issued_per_cycle::6                6148     19.94%     93.33% # Number of insts issued each cycle
system.cpu.iq.issued_per_cycle::7                2053      6.66%     99.99% # Number of insts issued each cycle
system.cpu.iq.issued_per_cycle::8                   4      0.01%    100.00% # Number of insts issued each cycle
system.cpu.iq.issued_per_cycle::overflows            0      0.00%    100.00% # Number of insts issued each cycle
system.cpu.iq.issued_per_cycle::min_value            0                       # Number of insts issued each cycle
system.cpu.iq.issued_per_cycle::max_value            8                       # Number of insts issued each cycle
system.cpu.iq.issued_per_cycle::total           30828                       # Number of insts issued each cycle
system.cpu.iq.rate                           2.652543                       # Inst issue rate
system.cpu.iq.vec_alu_accesses                      0                       # Number of vector alu accesses
system.cpu.iq.vec_inst_queue_reads                  0                       # Number of vector instruction queue reads
system.cpu.iq.vec_inst_queue_wakeup_accesses            0                       # Number of vector instruction queue wakeup accesses
system.cpu.iq.vec_inst_queue_writes                 0                       # Number of vector instruction queue writes
system.cpu.memDep0.conflictingLoads                 0                       # Number of conflicting loads.
system.cpu.memDep0.conflictingStores                0                       # Number of conflicting stores.
system.cpu.memDep0.insertedLoads                   16                       # Number of loads inserted to the mem dependence unit.
system.cpu.memDep0.insertedStores                   4                       # Number of stores inserted to the mem dependence unit.
system.cpu.misc_regfile_reads                    4135                       # number of misc regfile reads
system.cpu.numCycles                            30942                       # number of cpu cycles simulated
system.cpu.numWorkItemsCompleted                    0                       # number of work items this cpu completed
system.cpu.numWorkItemsStarted                      0                       # number of work items this cpu started
system.cpu.timesIdled                               3                       # Number of times that the entire CPU went into an idle state and unscheduled itself
system.cpu.workload.numSyscalls                     0                       # Number of system calls
system.l1_to_l2.snoop_filter.hit_multi_requests            0                       # Number of requests hitting in the snoop filter with multiple (>1) holders of the requested data.
system.l1_to_l2.snoop_filter.hit_multi_snoops            0                       # Number of snoops hitting in the snoop filter with multiple (>1) holders of the requested data.
system.l1_to_l2.snoop_filter.hit_single_requests            1                       # Number of requests hitting in the snoop filter with a single holder of the requested data.
system.l1_to_l2.snoop_filter.hit_single_snoops            0                       # Number of snoops hitting in the snoop filter with a single holder of the requested data.
system.l1_to_l2.snoop_filter.tot_requests            8                       # Total number of requests made to the snoop filter.
system.l1_to_l2.snoop_filter.tot_snoops             0                       # Total number of snoops made to the snoop filter.
system.membus.snoop_filter.hit_multi_requests            0                       # Number of requests hitting in the snoop filter with multiple (>1) holders of the requested data.
system.membus.snoop_filter.hit_multi_snoops            0                       # Number of snoops hitting in the snoop filter with multiple (>1) holders of the requested data.
system.membus.snoop_filter.hit_single_requests            0                       # Number of requests hitting in the snoop filter with a single holder of the requested data.
system.membus.snoop_filter.hit_single_snoops            0                       # Number of snoops hitting in the snoop filter with a single holder of the requested data.
system.membus.snoop_filter.tot_requests             8                       # Total number of requests made to the snoop filter.
system.membus.snoop_filter.tot_snoops               0                       # Total number of snoops made to the snoop filter.
system.clk_domain.clock                          1000                       # Clock period in ticks
system.clk_domain.voltage_domain.voltage            1                       # Voltage in Volts
system.cpu.branchPred.lookups                    4092                       # Number of BP lookups
system.cpu.branchPred.condPredicted              4087                       # Number of conditional branches predicted
system.cpu.branchPred.condIncorrect              2048                       # Number of conditional branches incorrect
system.cpu.branchPred.BTBLookups                    3                       # Number of BTB lookups
system.cpu.branchPred.BTBHits                       3                       # Number of BTB hits
system.cpu.branchPred.BTBHitPct            100.000000                       # BTB Hit Percentage
system.cpu.branchPred.RASUsed                       2                       # Number of times the RAS was used to get a target.
system.cpu.branchPred.RASIncorrect                  0                       # Number of incorrect RAS predictions.
system.cpu.branchPred.indirectLookups               0                       # Number of indirect predictor lookups.
system.cpu.branchPred.indirectHits                  0                       # Number of indirect target hits.
system.cpu.branchPred.indirectMisses                0                       # Number of indirect misses.
system.cpu.branchPred.indirectMispredicted            0                       # Number of mispredicted indirect branches.
system.cpu.commit.commitSquashedInsts           49127                       # The number of squashed insts skipped by commit
system.cpu.commit.commitNonSpecStalls               1                       # The number of times commit has been forced to stall to communicate backwards
system.cpu.commit.branchMispredicts              2048                       # The number of times a branch was mispredicted
system.cpu.commit.numCommittedDist::samples        24682                       # Number of insts commited each cycle
system.cpu.commit.numCommittedDist::mean     1.997610                       # Number of insts commited each cycle
system.cpu.commit.numCommittedDist::stdev     3.134176                       # Number of insts commited each cycle
system.cpu.commit.numCommittedDist::underflows            0      0.00%      0.00% # Number of insts commited each cycle
system.cpu.commit.numCommittedDist::0           14411     58.39%     58.39% # Number of insts commited each cycle
system.cpu.commit.numCommittedDist::1            4101     16.62%     75.00% # Number of insts commited each cycle
system.cpu.commit.numCommittedDist::2               1      0.00%     75.01% # Number of insts commited each cycle
system.cpu.commit.numCommittedDist::3               5      0.02%     75.03% # Number of insts commited each cycle
system.cpu.commit.numCommittedDist::4               4      0.02%     75.04% # Number of insts commited each cycle
system.cpu.commit.numCommittedDist::5               3      0.01%     75.05% # Number of insts commited each cycle
system.cpu.commit.numCommittedDist::6            2049      8.30%     83.36% # Number of insts commited each cycle
system.cpu.commit.numCommittedDist::7               2      0.01%     83.36% # Number of insts commited each cycle
system.cpu.commit.numCommittedDist::8            4106     16.64%    100.00% # Number of insts commited each cycle
system.cpu.commit.numCommittedDist::overflows            0      0.00%    100.00% # Number of insts commited each cycle
system.cpu.commit.numCommittedDist::min_value            0                       # Number of insts commited each cycle
system.cpu.commit.numCommittedDist::max_value            8                       # Number of insts commited each cycle
system.cpu.commit.numCommittedDist::total        24682                       # Number of insts commited each cycle
system.cpu.commit.instsCommitted                24662                       # Number of instructions committed
system.cpu.commit.opsCommitted                  49305                       # Number of ops (including micro ops) committed
system.cpu.commit.memRefs                          20                       # Number of memory references committed
system.cpu.commit.loads                            14                       # Number of loads committed
system.cpu.commit.amos                              0                       # Number of atomic instructions committed
system.cpu.commit.membars                           0                       # Number of memory barriers committed
system.cpu.commit.branches                       2053                       # Number of branches committed
system.cpu.commit.vector                            0                       # Number of committed Vector instructions.
system.cpu.commit.floating                      36928                       # Number of committed floating point instructions.
system.cpu.commit.integer                       12397                       # Number of committed integer instructions.
system.cpu.commit.functionCalls                     1                       # Number of function calls committed.
system.cpu.commit.committedInstType_0::No_OpClass            2      0.00%      0.00% # Class of committed instruction
system.cpu.commit.committedInstType_0::IntAlu        24664     50.02%     50.03% # Class of committed instruction
system.cpu.commit.committedInstType_0::IntMult            1      0.00%     50.03% # Class of committed instruction
system.cpu.commit.committedInstType_0::IntDiv            0      0.00%     50.03% # Class of committed instruction
system.cpu.commit.committedInstType_0::FloatAdd            2      0.00%     50.03% # Class of committed instruction
system.cpu.commit.committedInstType_0::FloatCmp            0      0.00%     50.03% # Class of committed instruction
system.cpu.commit.committedInstType_0::FloatCvt            0      0.00%     50.03% # Class of committed instruction
system.cpu.commit.committedInstType_0::FloatMult            0      0.00%     50.03% # Class of committed instruction
system.cpu.commit.committedInstType_0::FloatMultAcc            0      0.00%     50.03% # Class of committed instruction
system.cpu.commit.committedInstType_0::FloatDiv            0      0.00%     50.03% # Class of committed instruction
system.cpu.commit.committedInstType_0::FloatMisc            0      0.00%     50.03% # Class of committed instruction
system.cpu.commit.committedInstType_0::FloatSqrt            0      0.00%     50.03% # Class of committed instruction
system.cpu.commit.committedInstType_0::SimdAdd        24578     49.85%     99.88% # Class of committed instruction
system.cpu.commit.committedInstType_0::SimdAddAcc            0      0.00%     99.88% # Class of committed instruction
system.cpu.commit.committedInstType_0::SimdAlu            2      0.00%     99.89% # Class of committed instruction
system.cpu.commit.committedInstType_0::SimdCmp            0      0.00%     99.89% # Class of committed instruction
system.cpu.commit.committedInstType_0::SimdCvt            0      0.00%     99.89% # Class of committed instruction
system.cpu.commit.committedInstType_0::SimdMisc           36      0.07%     99.96% # Class of committed instruction
system.cpu.commit.committedInstType_0::SimdMult            0      0.00%     99.96% # Class of committed instruction
system.cpu.commit.committedInstType_0::SimdMultAcc            0      0.00%     99.96% # Class of committed instruction
system.cpu.commit.committedInstType_0::SimdShift            0      0.00%     99.96% # Class of committed instruction
system.cpu.commit.committedInstType_0::SimdShiftAcc            0      0.00%     99.96% # Class of committed instruction
system.cpu.commit.committedInstType_0::SimdDiv            0      0.00%     99.96% # Class of committed instruction
system.cpu.commit.committedInstType_0::SimdSqrt            0      0.00%     99.96% # Class of committed instruction
system.cpu.commit.committedInstType_0::SimdFloatAdd            0      0.00%     99.96% # Class of committed instruction
system.cpu.commit.committedInstType_0::SimdFloatAlu            0      0.00%     99.96% # Class of committed instruction
system.cpu.commit.committedInstType_0::SimdFloatCmp            0      0.00%     99.96% # Class of committed instruction
system.cpu.commit.committedInstType_0::SimdFloatCvt            0      0.00%     99.96% # Class of committed instruction
system.cpu.commit.committedInstType_0::SimdFloatDiv            0      0.00%     99.96% # Class of committed instruction
system.cpu.commit.committedInstType_0::SimdFloatMisc            0      0.00%     99.96% # Class of committed instruction
system.cpu.commit.committedInstType_0::SimdFloatMult            0      0.00%     99.96% # Class of committed instruction
system.cpu.commit.committedInstType_0::SimdFloatMultAcc            0      0.00%     99.96% # Class of committed instruction
system.cpu.commit.committedInstType_0::SimdFloatSqrt            0      0.00%     99.96% # Class of committed instruction
system.cpu.commit.committedInstType_0::SimdReduceAdd            0      0.00%     99.96% # Class of committed instruction
system.cpu.commit.committedInstType_0::SimdReduceAlu            0      0.00%     99.96% # Class of committed instruction
system.cpu.commit.committedInstType_0::SimdReduceCmp            0      0.00%     99.96% # Class of committed instruction
system.cpu.commit.committedInstType_0::SimdFloatReduceAdd            0      0.00%     99.96% # Class of committed instruction
system.cpu.commit.committedInstType_0::SimdFloatReduceCmp            0      0.00%     99.96% # Class of committed instruction
system.cpu.commit.committedInstType_0::SimdAes            0      0.00%     99.96% # Class of committed instruction
system.cpu.commit.committedInstType_0::SimdAesMix            0      0.00%     99.96% # Class of committed instruction
system.cpu.commit.committedInstType_0::SimdSha1Hash            0      0.00%     99.96% # Class of committed instruction
system.cpu.commit.committedInstType_0::SimdSha1Hash2            0      0.00%     99.96% # Class of committed instruction
system.cpu.commit.committedInstType_0::SimdSha256Hash            0      0.00%     99.96% # Class of committed instruction
system.cpu.commit.committedInstType_0::SimdSha256Hash2            0      0.00%     99.96% # Class of committed instruction
system.cpu.commit.committedInstType_0::SimdShaSigma2            0      0.00%     99.96% # Class of committed instruction
system.cpu.commit.committedInstType_0::SimdShaSigma3            0      0.00%     99.96% # Class of committed instruction
system.cpu.commit.committedInstType_0::SimdPredAlu            0      0.00%     99.96% # Class of committed instruction
system.cpu.commit.committedInstType_0::MemRead            6      0.01%     99.97% # Class of committed instruction
system.cpu.commit.committedInstType_0::MemWrite            6      0.01%     99.98% # Class of committed instruction
system.cpu.commit.committedInstType_0::FloatMemRead            8      0.02%    100.00% # Class of committed instruction
system.cpu.commit.committedInstType_0::FloatMemWrite            0      0.00%    100.00% # Class of committed instruction
system.cpu.commit.committedInstType_0::IprAccess            0      0.00%    100.00% # Class of committed instruction
system.cpu.commit.committedInstType_0::InstPrefetch            0      0.00%    100.00% # Class of committed instruction
system.cpu.commit.committedInstType_0::total        49305                       # Class of committed instruction
system.cpu.commit.commitEligibleSamples          4106                       # number cycles where commit BW limit reached
system.cpu.decode.idleCycles                     6248                       # Number of cycles decode is idle
system.cpu.decode.blockedCycles                  4097                       # Number of cycles decode is blocked
system.cpu.decode.runCycles                     14338                       # Number of cycles decode is running
system.cpu.decode.unblockCycles                  4096                       # Number of cycles decode is unblocking
system.cpu.decode.squashCycles                   2049                       # Number of cycles decode is squashing
system.cpu.decode.branchResolved                    2                       # Number of times decode resolved a  branch
system.cpu.decode.decodedInsts                 147416                       # Number of instructions handled by decode
system.cpu.dtb.rdAccesses                          16                       # TLB accesses on read requests
system.cpu.dtb.wrAccesses                           7                       # TLB accesses on write requests
system.cpu.dtb.rdMisses                             1                       # TLB misses on read requests
system.cpu.dtb.wrMisses                             0                       # TLB misses on write requests
system.cpu.dtb.walker.power_state.pwrStateResidencyTicks::UNDEFINED     65809000                       # Cumulative time (in ticks) in various power states
system.cpu.fetch.icacheStallCycles               2179                       # Number of cycles fetch is stalled on an Icache miss
system.cpu.fetch.insts                         108393                       # Number of instructions fetch has processed
system.cpu.fetch.branches                        4092                       # Number of branches that fetch encountered
system.cpu.fetch.predictedBranches                  5                       # Number of branches that fetch has predicted taken
system.cpu.fetch.cycles                         26600                       # Number of cycles fetch has run and was not squashing or blocked
system.cpu.fetch.squashCycles                    4098                       # Number of cycles fetch has spent squashing
system.cpu.fetch.cacheLines                      8195                       # Number of cache lines fetched
system.cpu.fetch.icacheSquashes                    10                       # Number of outstanding Icache misses that were squashed
system.cpu.fetch.nisnDist::samples              30828                       # Number of instructions fetched each cycle (Total)
system.cpu.fetch.nisnDist::mean              5.707409                       # Number of instructions fetched each cycle (Total)
system.cpu.fetch.nisnDist::stdev             3.270113                       # Number of instructions fetched each cycle (Total)
system.cpu.fetch.nisnDist::underflows               0      0.00%      0.00% # Number of instructions fetched each cycle (Total)
system.cpu.fetch.nisnDist::0                     4228     13.71%     13.71% # Number of instructions fetched each cycle (Total)
system.cpu.fetch.nisnDist::1                        2      0.01%     13.72% # Number of instructions fetched each cycle (Total)
system.cpu.fetch.nisnDist::2                     6138     19.91%     33.63% # Number of instructions fetched each cycle (Total)
system.cpu.fetch.nisnDist::3                        0      0.00%     33.63% # Number of instructions fetched each cycle (Total)
system.cpu.fetch.nisnDist::4                        0      0.00%     33.63% # Number of instructions fetched each cycle (Total)
system.cpu.fetch.nisnDist::5                        2      0.01%     33.64% # Number of instructions fetched each cycle (Total)
system.cpu.fetch.nisnDist::6                        2      0.01%     33.64% # Number of instructions fetched each cycle (Total)
system.cpu.fetch.nisnDist::7                        0      0.00%     33.64% # Number of instructions fetched each cycle (Total)
system.cpu.fetch.nisnDist::8                    20456     66.36%    100.00% # Number of instructions fetched each cycle (Total)
system.cpu.fetch.nisnDist::overflows                0      0.00%    100.00% # Number of instructions fetched each cycle (Total)
system.cpu.fetch.nisnDist::min_value                0                       # Number of instructions fetched each cycle (Total)
system.cpu.fetch.nisnDist::max_value                8                       # Number of instructions fetched each cycle (Total)
system.cpu.fetch.nisnDist::total                30828                       # Number of instructions fetched each cycle (Total)
system.cpu.fetch.branchRate                  0.132247                       # Number of branch fetches per cycle
system.cpu.fetch.rate                        3.503103                       # Number of inst fetches per cycle
system.cpu.interrupts.clk_domain.clock          16000                       # Clock period in ticks
system.cpu.itb.rdAccesses                           0                       # TLB accesses on read requests
system.cpu.itb.wrAccesses                        8195                       # TLB accesses on write requests
system.cpu.itb.rdMisses                             0                       # TLB misses on read requests
system.cpu.itb.wrMisses                             0                       # TLB misses on write requests
system.cpu.itb.walker.power_state.pwrStateResidencyTicks::UNDEFINED     65809000                       # Cumulative time (in ticks) in various power states
system.cpu.l1d.demand_hits::.cpu.data              14                       # number of demand (read+write) hits
system.cpu.l1d.demand_hits::total                  14                       # number of demand (read+write) hits
system.cpu.l1d.overall_hits::.cpu.data             14                       # number of overall hits
system.cpu.l1d.overall_hits::total                 14                       # number of overall hits
system.cpu.l1d.demand_misses::.cpu.data             8                       # number of demand (read+write) misses
system.cpu.l1d.demand_misses::total                 8                       # number of demand (read+write) misses
system.cpu.l1d.overall_misses::.cpu.data            8                       # number of overall misses
system.cpu.l1d.overall_misses::total                8                       # number of overall misses
system.cpu.l1d.demand_miss_latency::.cpu.data       586000                       # number of demand (read+write) miss cycles
system.cpu.l1d.demand_miss_latency::total       586000                       # number of demand (read+write) miss cycles
system.cpu.l1d.overall_miss_latency::.cpu.data       586000                       # number of overall miss cycles
system.cpu.l1d.overall_miss_latency::total       586000                       # number of overall miss cycles
system.cpu.l1d.demand_accesses::.cpu.data           22                       # number of demand (read+write) accesses
system.cpu.l1d.demand_accesses::total              22                       # number of demand (read+write) accesses
system.cpu.l1d.overall_accesses::.cpu.data           22                       # number of overall (read+write) accesses
system.cpu.l1d.overall_accesses::total             22                       # number of overall (read+write) accesses
system.cpu.l1d.demand_miss_rate::.cpu.data     0.363636                       # miss rate for demand accesses
system.cpu.l1d.demand_miss_rate::total       0.363636                       # miss rate for demand accesses
system.cpu.l1d.overall_miss_rate::.cpu.data     0.363636                       # miss rate for overall accesses
system.cpu.l1d.overall_miss_rate::total      0.363636                       # miss rate for overall accesses
system.cpu.l1d.demand_avg_miss_latency::.cpu.data        73250                       # average overall miss latency
system.cpu.l1d.demand_avg_miss_latency::total        73250                       # average overall miss latency
system.cpu.l1d.overall_avg_miss_latency::.cpu.data        73250                       # average overall miss latency
system.cpu.l1d.overall_avg_miss_latency::total        73250                       # average overall miss latency
system.cpu.l1d.blocked_cycles::no_mshrs             0                       # number of cycles access was blocked
system.cpu.l1d.blocked_cycles::no_targets            0                       # number of cycles access was blocked
system.cpu.l1d.blocked::no_mshrs                    0                       # number of cycles access was blocked
system.cpu.l1d.blocked::no_targets                  0                       # number of cycles access was blocked
system.cpu.l1d.avg_blocked_cycles::no_mshrs          nan                       # average number of cycles each access was blocked
system.cpu.l1d.avg_blocked_cycles::no_targets          nan                       # average number of cycles each access was blocked
system.cpu.l1d.demand_mshr_hits::.cpu.data            6                       # number of demand (read+write) MSHR hits
system.cpu.l1d.demand_mshr_hits::total              6                       # number of demand (read+write) MSHR hits
system.cpu.l1d.overall_mshr_hits::.cpu.data            6                       # number of overall MSHR hits
system.cpu.l1d.overall_mshr_hits::total             6                       # number of overall MSHR hits
system.cpu.l1d.demand_mshr_misses::.cpu.data            2                       # number of demand (read+write) MSHR misses
system.cpu.l1d.demand_mshr_misses::total            2                       # number of demand (read+write) MSHR misses
system.cpu.l1d.overall_mshr_misses::.cpu.data            2                       # number of overall MSHR misses
system.cpu.l1d.overall_mshr_misses::total            2                       # number of overall MSHR misses
system.cpu.l1d.demand_mshr_miss_latency::.cpu.data       138000                       # number of demand (read+write) MSHR miss cycles
system.cpu.l1d.demand_mshr_miss_latency::total       138000                       # number of demand (read+write) MSHR miss cycles
system.cpu.l1d.overall_mshr_miss_latency::.cpu.data       138000                       # number of overall MSHR miss cycles
system.cpu.l1d.overall_mshr_miss_latency::total       138000                       # number of overall MSHR miss cycles
system.cpu.l1d.demand_mshr_miss_rate::.cpu.data     0.090909                       # mshr miss rate for demand accesses
system.cpu.l1d.demand_mshr_miss_rate::total     0.090909                       # mshr miss rate for demand accesses
system.cpu.l1d.overall_mshr_miss_rate::.cpu.data     0.090909                       # mshr miss rate for overall accesses
system.cpu.l1d.overall_mshr_miss_rate::total     0.090909                       # mshr miss rate for overall accesses
system.cpu.l1d.demand_avg_mshr_miss_latency::.cpu.data        69000                       # average overall mshr miss latency
system.cpu.l1d.demand_avg_mshr_miss_latency::total        69000                       # average overall mshr miss latency
system.cpu.l1d.overall_avg_mshr_miss_latency::.cpu.data        69000                       # average overall mshr miss latency
system.cpu.l1d.overall_avg_mshr_miss_latency::total        69000                       # average overall mshr miss latency
system.cpu.l1d.replacements                         0                       # number of replacements
system.cpu.l1d.ReadReq_hits::.cpu.data              8                       # number of ReadReq hits
system.cpu.l1d.ReadReq_hits::total                  8                       # number of ReadReq hits
system.cpu.l1d.ReadReq_misses::.cpu.data            8                       # number of ReadReq misses
system.cpu.l1d.ReadReq_misses::total                8                       # number of ReadReq misses
system.cpu.l1d.ReadReq_miss_latency::.cpu.data       586000                       # number of ReadReq miss cycles
system.cpu.l1d.ReadReq_miss_latency::total       586000                       # number of ReadReq miss cycles
system.cpu.l1d.ReadReq_accesses::.cpu.data           16                       # number of ReadReq accesses(hits+misses)
system.cpu.l1d.ReadReq_accesses::total             16                       # number of ReadReq accesses(hits+misses)
system.cpu.l1d.ReadReq_miss_rate::.cpu.data     0.500000                       # miss rate for ReadReq accesses
system.cpu.l1d.ReadReq_miss_rate::total      0.500000                       # miss rate for ReadReq accesses
system.cpu.l1d.ReadReq_avg_miss_latency::.cpu.data        73250                       # average ReadReq miss latency
system.cpu.l1d.ReadReq_avg_miss_latency::total        73250                       # average ReadReq miss latency
system.cpu.l1d.ReadReq_mshr_hits::.cpu.data            6                       # number of ReadReq MSHR hits
system.cpu.l1d.ReadReq_mshr_hits::total             6                       # number of ReadReq MSHR hits
system.cpu.l1d.ReadReq_mshr_misses::.cpu.data            2                       # number of ReadReq MSHR misses
system.cpu.l1d.ReadReq_mshr_misses::total            2                       # number of ReadReq MSHR misses
system.cpu.l1d.ReadReq_mshr_miss_latency::.cpu.data       138000                       # number of ReadReq MSHR miss cycles
system.cpu.l1d.ReadReq_mshr_miss_latency::total       138000                       # number of ReadReq MSHR miss cycles
system.cpu.l1d.ReadReq_mshr_miss_rate::.cpu.data     0.125000                       # mshr miss rate for ReadReq accesses
system.cpu.l1d.ReadReq_mshr_miss_rate::total     0.125000                       # mshr miss rate for ReadReq accesses
system.cpu.l1d.ReadReq_avg_mshr_miss_latency::.cpu.data        69000                       # average ReadReq mshr miss latency
system.cpu.l1d.ReadReq_avg_mshr_miss_latency::total        69000                       # average ReadReq mshr miss latency
system.cpu.l1d.WriteReq_hits::.cpu.data             6                       # number of WriteReq hits
system.cpu.l1d.WriteReq_hits::total                 6                       # number of WriteReq hits
system.cpu.l1d.WriteReq_accesses::.cpu.data            6                       # number of WriteReq accesses(hits+misses)
system.cpu.l1d.WriteReq_accesses::total             6                       # number of WriteReq accesses(hits+misses)
system.cpu.l1d.power_state.pwrStateResidencyTicks::UNDEFINED     65809000                       # Cumulative time (in ticks) in various power states
system.cpu.l1d.tags.tagsinuse              219.993278                       # Cycle average of tags in use
system.cpu.l1d.tags.total_refs                      0                       # Total number of references to valid blocks.
system.cpu.l1d.tags.sampled_refs                    0                       # Sample count of references to valid blocks.
system.cpu.l1d.tags.avg_refs                      nan                       # Average number of references to valid blocks.
system.cpu.l1d.tags.warmup_cycle                    0                       # Cycle when the warmup percentage was hit.
system.cpu.l1d.tags.occ_blocks::.cpu.data   219.993278                       # Average occupied blocks per requestor
system.cpu.l1d.tags.occ_percent::.cpu.data     0.429674                       # Average percentage of cache occupancy
system.cpu.l1d.tags.occ_percent::total       0.429674                       # Average percentage of cache occupancy
system.cpu.l1d.tags.occ_task_id_blocks::1024          220                       # Occupied blocks per task id
system.cpu.l1d.tags.age_task_id_blocks_1024::1          220                       # Occupied blocks per task id
system.cpu.l1d.tags.occ_task_id_percent::1024     0.429688                       # Percentage of cache occupancy per task id
system.cpu.l1d.tags.tag_accesses                  178                       # Number of tag accesses
system.cpu.l1d.tags.data_accesses                 178                       # Number of data accesses
system.cpu.l1d.tags.power_state.pwrStateResidencyTicks::UNDEFINED     65809000                       # Cumulative time (in ticks) in various power states
system.cpu.l1i.demand_hits::.cpu.inst            8180                       # number of demand (read+write) hits
system.cpu.l1i.demand_hits::total                8180                       # number of demand (read+write) hits
system.cpu.l1i.overall_hits::.cpu.inst           8180                       # number of overall hits
system.cpu.l1i.overall_hits::total               8180                       # number of overall hits
system.cpu.l1i.demand_misses::.cpu.inst            15                       # number of demand (read+write) misses
system.cpu.l1i.demand_misses::total                15                       # number of demand (read+write) misses
system.cpu.l1i.overall_misses::.cpu.inst           15                       # number of overall misses
system.cpu.l1i.overall_misses::total               15                       # number of overall misses
system.cpu.l1i.demand_miss_latency::.cpu.inst       605000                       # number of demand (read+write) miss cycles
system.cpu.l1i.demand_miss_latency::total       605000                       # number of demand (read+write) miss cycles
system.cpu.l1i.overall_miss_latency::.cpu.inst       605000                       # number of overall miss cycles
system.cpu.l1i.overall_miss_latency::total       605000                       # number of overall miss cycles
system.cpu.l1i.demand_accesses::.cpu.inst         8195                       # number of demand (read+write) accesses
system.cpu.l1i.demand_accesses::total            8195                       # number of demand (read+write) accesses
system.cpu.l1i.overall_accesses::.cpu.inst         8195                       # number of overall (read+write) accesses
system.cpu.l1i.overall_accesses::total           8195                       # number of overall (read+write) accesses
system.cpu.l1i.demand_miss_rate::.cpu.inst     0.001830                       # miss rate for demand accesses
system.cpu.l1i.demand_miss_rate::total       0.001830                       # miss rate for demand accesses
system.cpu.l1i.overall_miss_rate::.cpu.inst     0.001830                       # miss rate for overall accesses
system.cpu.l1i.overall_miss_rate::total      0.001830                       # miss rate for overall accesses
system.cpu.l1i.demand_avg_miss_latency::.cpu.inst 40333.333333                       # average overall miss latency
system.cpu.l1i.demand_avg_miss_latency::total 40333.333333                       # average overall miss latency
system.cpu.l1i.overall_avg_miss_latency::.cpu.inst 40333.333333                       # average overall miss latency
system.cpu.l1i.overall_avg_miss_latency::total 40333.333333                       # average overall miss latency
system.cpu.l1i.blocked_cycles::no_mshrs             0                       # number of cycles access was blocked
system.cpu.l1i.blocked_cycles::no_targets            0                       # number of cycles access was blocked
system.cpu.l1i.blocked::no_mshrs                    0                       # number of cycles access was blocked
system.cpu.l1i.blocked::no_targets                  0                       # number of cycles access was blocked
system.cpu.l1i.avg_blocked_cycles::no_mshrs          nan                       # average number of cycles each access was blocked
system.cpu.l1i.avg_blocked_cycles::no_targets          nan                       # average number of cycles each access was blocked
system.cpu.l1i.demand_mshr_hits::.cpu.inst           10                       # number of demand (read+write) MSHR hits
system.cpu.l1i.demand_mshr_hits::total             10                       # number of demand (read+write) MSHR hits
system.cpu.l1i.overall_mshr_hits::.cpu.inst           10                       # number of overall MSHR hits
system.cpu.l1i.overall_mshr_hits::total            10                       # number of overall MSHR hits
system.cpu.l1i.demand_mshr_misses::.cpu.inst            5                       # number of demand (read+write) MSHR misses
system.cpu.l1i.demand_mshr_misses::total            5                       # number of demand (read+write) MSHR misses
system.cpu.l1i.overall_mshr_misses::.cpu.inst            5                       # number of overall MSHR misses
system.cpu.l1i.overall_mshr_misses::total            5                       # number of overall MSHR misses
system.cpu.l1i.demand_mshr_miss_latency::.cpu.inst       324000                       # number of demand (read+write) MSHR miss cycles
system.cpu.l1i.demand_mshr_miss_latency::total       324000                       # number of demand (read+write) MSHR miss cycles
system.cpu.l1i.overall_mshr_miss_latency::.cpu.inst       324000                       # number of overall MSHR miss cycles
system.cpu.l1i.overall_mshr_miss_latency::total       324000                       # number of overall MSHR miss cycles
system.cpu.l1i.demand_mshr_miss_rate::.cpu.inst     0.000610                       # mshr miss rate for demand accesses
system.cpu.l1i.demand_mshr_miss_rate::total     0.000610                       # mshr miss rate for demand accesses
system.cpu.l1i.overall_mshr_miss_rate::.cpu.inst     0.000610                       # mshr miss rate for overall accesses
system.cpu.l1i.overall_mshr_miss_rate::total     0.000610                       # mshr miss rate for overall accesses
system.cpu.l1i.demand_avg_mshr_miss_latency::.cpu.inst        64800                       # average overall mshr miss latency
system.cpu.l1i.demand_avg_mshr_miss_latency::total        64800                       # average overall mshr miss latency
system.cpu.l1i.overall_avg_mshr_miss_latency::.cpu.inst        64800                       # average overall mshr miss latency
system.cpu.l1i.overall_avg_mshr_miss_latency::total        64800                       # average overall mshr miss latency
system.cpu.l1i.replacements                         1                       # number of replacements
system.cpu.l1i.ReadReq_hits::.cpu.inst           8180                       # number of ReadReq hits
system.cpu.l1i.ReadReq_hits::total               8180                       # number of ReadReq hits
system.cpu.l1i.ReadReq_misses::.cpu.inst           15                       # number of ReadReq misses
system.cpu.l1i.ReadReq_misses::total               15                       # number of ReadReq misses
system.cpu.l1i.ReadReq_miss_latency::.cpu.inst       605000                       # number of ReadReq miss cycles
system.cpu.l1i.ReadReq_miss_latency::total       605000                       # number of ReadReq miss cycles
system.cpu.l1i.ReadReq_accesses::.cpu.inst         8195                       # number of ReadReq accesses(hits+misses)
system.cpu.l1i.ReadReq_accesses::total           8195                       # number of ReadReq accesses(hits+misses)
system.cpu.l1i.ReadReq_miss_rate::.cpu.inst     0.001830                       # miss rate for ReadReq accesses
system.cpu.l1i.ReadReq_miss_rate::total      0.001830                       # miss rate for ReadReq accesses
system.cpu.l1i.ReadReq_avg_miss_latency::.cpu.inst 40333.333333                       # average ReadReq miss latency
system.cpu.l1i.ReadReq_avg_miss_latency::total 40333.333333                       # average ReadReq miss latency
system.cpu.l1i.ReadReq_mshr_hits::.cpu.inst           10                       # number of ReadReq MSHR hits
system.cpu.l1i.ReadReq_mshr_hits::total            10                       # number of ReadReq MSHR hits
system.cpu.l1i.ReadReq_mshr_misses::.cpu.inst            5                       # number of ReadReq MSHR misses
system.cpu.l1i.ReadReq_mshr_misses::total            5                       # number of ReadReq MSHR misses
system.cpu.l1i.ReadReq_mshr_miss_latency::.cpu.inst       324000                       # number of ReadReq MSHR miss cycles
system.cpu.l1i.ReadReq_mshr_miss_latency::total       324000                       # number of ReadReq MSHR miss cycles
system.cpu.l1i.ReadReq_mshr_miss_rate::.cpu.inst     0.000610                       # mshr miss rate for ReadReq accesses
system.cpu.l1i.ReadReq_mshr_miss_rate::total     0.000610                       # mshr miss rate for ReadReq accesses
system.cpu.l1i.ReadReq_avg_mshr_miss_latency::.cpu.inst        64800                       # average ReadReq mshr miss latency
system.cpu.l1i.ReadReq_avg_mshr_miss_latency::total        64800                       # average ReadReq mshr miss latency
system.cpu.l1i.power_state.pwrStateResidencyTicks::UNDEFINED     65809000                       # Cumulative time (in ticks) in various power states
system.cpu.l1i.tags.tagsinuse              418.981708                       # Cycle average of tags in use
system.cpu.l1i.tags.total_refs                      1                       # Total number of references to valid blocks.
system.cpu.l1i.tags.sampled_refs                    1                       # Sample count of references to valid blocks.
system.cpu.l1i.tags.avg_refs                        1                       # Average number of references to valid blocks.
system.cpu.l1i.tags.warmup_cycle                    0                       # Cycle when the warmup percentage was hit.
system.cpu.l1i.tags.occ_blocks::.cpu.inst   418.981708                       # Average occupied blocks per requestor
system.cpu.l1i.tags.occ_percent::.cpu.inst     0.818324                       # Average percentage of cache occupancy
system.cpu.l1i.tags.occ_percent::total       0.818324                       # Average percentage of cache occupancy
system.cpu.l1i.tags.occ_task_id_blocks::1024          420                       # Occupied blocks per task id
system.cpu.l1i.tags.age_task_id_blocks_1024::0            1                       # Occupied blocks per task id
system.cpu.l1i.tags.age_task_id_blocks_1024::1          419                       # Occupied blocks per task id
system.cpu.l1i.tags.occ_task_id_percent::1024     0.820312                       # Percentage of cache occupancy per task id
system.cpu.l1i.tags.tag_accesses                65565                       # Number of tag accesses
system.cpu.l1i.tags.data_accesses               65565                       # Number of data accesses
system.cpu.l1i.tags.power_state.pwrStateResidencyTicks::UNDEFINED     65809000                       # Cumulative time (in ticks) in various power states
system.cpu.lsq0.forwLoads                           0                       # Number of loads that had data forwarded from stores
system.cpu.lsq0.squashedLoads                       1                       # Number of loads squashed
system.cpu.lsq0.ignoredResponses                    0                       # Number of memory responses ignored because the instruction is squashed
system.cpu.lsq0.memOrderViolation                   1                       # Number of memory ordering violations
system.cpu.lsq0.squashedStores                      1                       # Number of stores squashed
system.cpu.lsq0.rescheduledLoads                    0                       # Number of loads that were rescheduled
system.cpu.lsq0.blockedByCache                      0                       # Number of times an access to memory failed due to the cache being blocked
system.cpu.power_state.pwrStateResidencyTicks::ON     65809000                       # Cumulative time (in ticks) in various power states
system.cpu.rename.squashCycles                   2049                       # Number of cycles rename is squashing
system.cpu.rename.idleCycles                     8290                       # Number of cycles rename is idle
system.cpu.rename.blockCycles                    4097                       # Number of cycles rename is blocking
system.cpu.rename.serializeStallCycles              0                       # count of cycles rename stalledfor serializing inst
system.cpu.rename.runCycles                     16392                       # Number of cycles rename is running
system.cpu.rename.renamedInsts                 131084                       # Number of instructions processed by rename
system.cpu.rename.renamedOperands              149535                       # Number of destination operands rename has renamed
system.cpu.rename.lookups                      288804                       # Number of register rename lookups that rename has made
system.cpu.rename.intLookups                    45183                       # Number of integer rename lookups
system.cpu.rename.fpLookups                    229245                       # Number of floating rename lookups
system.cpu.rename.committedMaps                 55485                       # Number of HB maps that are committed
system.cpu.rename.undoneMaps                    94090                       # Number of HB maps that are undone due to squashing
system.cpu.rename.serializing                       0                       # count of serializing insts renamed
system.cpu.rename.tempSerializing                   0                       # count of temporary serializing insts renamed
system.cpu.rename.skidInsts                         0                       # count of insts added to the skid buffer
system.cpu.rob.reads                           119008                       # The number of ROB reads
system.cpu.rob.writes                          202998                       # The number of ROB writes
system.cpu.thread_0.numInsts                    24662                       # Number of Instructions committed
system.cpu.thread_0.numOps                      49305                       # Number of Ops committed
system.cpu.thread_0.numMemRefs                      0                       # Number of Memory References
system.l1_to_l2.trans_dist::ReadResp                7                       # Transaction distribution
system.l1_to_l2.trans_dist::CleanEvict              1                       # Transaction distribution
system.l1_to_l2.trans_dist::ReadSharedReq            7                       # Transaction distribution
system.l1_to_l2.pkt_count_system.cpu.l1d.mem_side_port::system.l2cache.cpu_side_port            4                       # Packet count per connected requestor and responder (bytes)
system.l1_to_l2.pkt_count_system.cpu.l1i.mem_side_port::system.l2cache.cpu_side_port           11                       # Packet count per connected requestor and responder (bytes)
system.l1_to_l2.pkt_count::total                   15                       # Packet count per connected requestor and responder (bytes)
system.l1_to_l2.pkt_size_system.cpu.l1d.mem_side_port::system.l2cache.cpu_side_port          128                       # Cumulative packet size per connected requestor and responder (bytes)
system.l1_to_l2.pkt_size_system.cpu.l1i.mem_side_port::system.l2cache.cpu_side_port          320                       # Cumulative packet size per connected requestor and responder (bytes)
system.l1_to_l2.pkt_size::total                   448                       # Cumulative packet size per connected requestor and responder (bytes)
system.l1_to_l2.snoops                              0                       # Total snoops (count)
system.l1_to_l2.snoopTraffic                        0                       # Total snoop traffic (bytes)
system.l1_to_l2.snoop_fanout::samples               7                       # Request fanout histogram
system.l1_to_l2.snoop_fanout::mean                  0                       # Request fanout histogram
system.l1_to_l2.snoop_fanout::stdev                 0                       # Request fanout histogram
system.l1_to_l2.snoop_fanout::underflows            0      0.00%      0.00% # Request fanout histogram
system.l1_to_l2.snoop_fanout::0                     7    100.00%    100.00% # Request fanout histogram
system.l1_to_l2.snoop_fanout::1                     0      0.00%    100.00% # Request fanout histogram
system.l1_to_l2.snoop_fanout::2                     0      0.00%    100.00% # Request fanout histogram
system.l1_to_l2.snoop_fanout::overflows             0      0.00%    100.00% # Request fanout histogram
system.l1_to_l2.snoop_fanout::min_value             0                       # Request fanout histogram
system.l1_to_l2.snoop_fanout::max_value             0                       # Request fanout histogram
system.l1_to_l2.snoop_fanout::total                 7                       # Request fanout histogram
system.l1_to_l2.power_state.pwrStateResidencyTicks::UNDEFINED     65809000                       # Cumulative time (in ticks) in various power states
system.l1_to_l2.reqLayer0.occupancy              8000                       # Layer occupancy (ticks)
system.l1_to_l2.reqLayer0.utilization             0.0                       # Layer utilization (%)
system.l1_to_l2.respLayer0.occupancy             4000                       # Layer occupancy (ticks)
system.l1_to_l2.respLayer0.utilization            0.0                       # Layer utilization (%)
system.l1_to_l2.respLayer1.occupancy            10000                       # Layer occupancy (ticks)
system.l1_to_l2.respLayer1.utilization            0.0                       # Layer utilization (%)
system.l2cache.demand_misses::.cpu.inst             5                       # number of demand (read+write) misses
system.l2cache.demand_misses::.cpu.data             2                       # number of demand (read+write) misses
system.l2cache.demand_misses::total                 7                       # number of demand (read+write) misses
system.l2cache.overall_misses::.cpu.inst            5                       # number of overall misses
system.l2cache.overall_misses::.cpu.data            2                       # number of overall misses
system.l2cache.overall_misses::total                7                       # number of overall misses
system.l2cache.demand_miss_latency::.cpu.inst       314000                       # number of demand (read+write) miss cycles
system.l2cache.demand_miss_latency::.cpu.data       134000                       # number of demand (read+write) miss cycles
system.l2cache.demand_miss_latency::total       448000                       # number of demand (read+write) miss cycles
system.l2cache.overall_miss_latency::.cpu.inst       314000                       # number of overall miss cycles
system.l2cache.overall_miss_latency::.cpu.data       134000                       # number of overall miss cycles
system.l2cache.overall_miss_latency::total       448000                       # number of overall miss cycles
system.l2cache.demand_accesses::.cpu.inst            5                       # number of demand (read+write) accesses
system.l2cache.demand_accesses::.cpu.data            2                       # number of demand (read+write) accesses
system.l2cache.demand_accesses::total               7                       # number of demand (read+write) accesses
system.l2cache.overall_accesses::.cpu.inst            5                       # number of overall (read+write) accesses
system.l2cache.overall_accesses::.cpu.data            2                       # number of overall (read+write) accesses
system.l2cache.overall_accesses::total              7                       # number of overall (read+write) accesses
system.l2cache.demand_miss_rate::.cpu.inst            1                       # miss rate for demand accesses
system.l2cache.demand_miss_rate::.cpu.data            1                       # miss rate for demand accesses
system.l2cache.demand_miss_rate::total              1                       # miss rate for demand accesses
system.l2cache.overall_miss_rate::.cpu.inst            1                       # miss rate for overall accesses
system.l2cache.overall_miss_rate::.cpu.data            1                       # miss rate for overall accesses
system.l2cache.overall_miss_rate::total             1                       # miss rate for overall accesses
system.l2cache.demand_avg_miss_latency::.cpu.inst        62800                       # average overall miss latency
system.l2cache.demand_avg_miss_latency::.cpu.data        67000                       # average overall miss latency
system.l2cache.demand_avg_miss_latency::total        64000                       # average overall miss latency
system.l2cache.overall_avg_miss_latency::.cpu.inst        62800                       # average overall miss latency
system.l2cache.overall_avg_miss_latency::.cpu.data        67000                       # average overall miss latency
system.l2cache.overall_avg_miss_latency::total        64000                       # average overall miss latency
system.l2cache.blocked_cycles::no_mshrs             0                       # number of cycles access was blocked
system.l2cache.blocked_cycles::no_targets            0                       # number of cycles access was blocked
system.l2cache.blocked::no_mshrs                    0                       # number of cycles access was blocked
system.l2cache.blocked::no_targets                  0                       # number of cycles access was blocked
system.l2cache.avg_blocked_cycles::no_mshrs          nan                       # average number of cycles each access was blocked
system.l2cache.avg_blocked_cycles::no_targets          nan                       # average number of cycles each access was blocked
system.l2cache.demand_mshr_misses::.cpu.inst            5                       # number of demand (read+write) MSHR misses
system.l2cache.demand_mshr_misses::.cpu.data            2                       # number of demand (read+write) MSHR misses
system.l2cache.demand_mshr_misses::total            7                       # number of demand (read+write) MSHR misses
system.l2cache.overall_mshr_misses::.cpu.inst            5                       # number of overall MSHR misses
system.l2cache.overall_mshr_misses::.cpu.data            2                       # number of overall MSHR misses
system.l2cache.overall_mshr_misses::total            7                       # number of overall MSHR misses
system.l2cache.demand_mshr_miss_latency::.cpu.inst       309000                       # number of demand (read+write) MSHR miss cycles
system.l2cache.demand_mshr_miss_latency::.cpu.data       132000                       # number of demand (read+write) MSHR miss cycles
system.l2cache.demand_mshr_miss_latency::total       441000                       # number of demand (read+write) MSHR miss cycles
system.l2cache.overall_mshr_miss_latency::.cpu.inst       309000                       # number of overall MSHR miss cycles
system.l2cache.overall_mshr_miss_latency::.cpu.data       132000                       # number of overall MSHR miss cycles
system.l2cache.overall_mshr_miss_latency::total       441000                       # number of overall MSHR miss cycles
system.l2cache.demand_mshr_miss_rate::.cpu.inst            1                       # mshr miss rate for demand accesses
system.l2cache.demand_mshr_miss_rate::.cpu.data            1                       # mshr miss rate for demand accesses
system.l2cache.demand_mshr_miss_rate::total            1                       # mshr miss rate for demand accesses
system.l2cache.overall_mshr_miss_rate::.cpu.inst            1                       # mshr miss rate for overall accesses
system.l2cache.overall_mshr_miss_rate::.cpu.data            1                       # mshr miss rate for overall accesses
system.l2cache.overall_mshr_miss_rate::total            1                       # mshr miss rate for overall accesses
system.l2cache.demand_avg_mshr_miss_latency::.cpu.inst        61800                       # average overall mshr miss latency
system.l2cache.demand_avg_mshr_miss_latency::.cpu.data        66000                       # average overall mshr miss latency
system.l2cache.demand_avg_mshr_miss_latency::total        63000                       # average overall mshr miss latency
system.l2cache.overall_avg_mshr_miss_latency::.cpu.inst        61800                       # average overall mshr miss latency
system.l2cache.overall_avg_mshr_miss_latency::.cpu.data        66000                       # average overall mshr miss latency
system.l2cache.overall_avg_mshr_miss_latency::total        63000                       # average overall mshr miss latency
system.l2cache.replacements                         0                       # number of replacements
system.l2cache.ReadSharedReq_misses::.cpu.inst            5                       # number of ReadSharedReq misses
system.l2cache.ReadSharedReq_misses::.cpu.data            2                       # number of ReadSharedReq misses
system.l2cache.ReadSharedReq_misses::total            7                       # number of ReadSharedReq misses
system.l2cache.ReadSharedReq_miss_latency::.cpu.inst       314000                       # number of ReadSharedReq miss cycles
system.l2cache.ReadSharedReq_miss_latency::.cpu.data       134000                       # number of ReadSharedReq miss cycles
system.l2cache.ReadSharedReq_miss_latency::total       448000                       # number of ReadSharedReq miss cycles
system.l2cache.ReadSharedReq_accesses::.cpu.inst            5                       # number of ReadSharedReq accesses(hits+misses)
system.l2cache.ReadSharedReq_accesses::.cpu.data            2                       # number of ReadSharedReq accesses(hits+misses)
system.l2cache.ReadSharedReq_accesses::total            7                       # number of ReadSharedReq accesses(hits+misses)
system.l2cache.ReadSharedReq_miss_rate::.cpu.inst            1                       # miss rate for ReadSharedReq accesses
system.l2cache.ReadSharedReq_miss_rate::.cpu.data            1                       # miss rate for ReadSharedReq accesses
system.l2cache.ReadSharedReq_miss_rate::total            1                       # miss rate for ReadSharedReq accesses
system.l2cache.ReadSharedReq_avg_miss_latency::.cpu.inst        62800                       # average ReadSharedReq miss latency
system.l2cache.ReadSharedReq_avg_miss_latency::.cpu.data        67000                       # average ReadSharedReq miss latency
system.l2cache.ReadSharedReq_avg_miss_latency::total        64000                       # average ReadSharedReq miss latency
system.l2cache.ReadSharedReq_mshr_misses::.cpu.inst            5                       # number of ReadSharedReq MSHR misses
system.l2cache.ReadSharedReq_mshr_misses::.cpu.data            2                       # number of ReadSharedReq MSHR misses
system.l2cache.ReadSharedReq_mshr_misses::total            7                       # number of ReadSharedReq MSHR misses
system.l2cache.ReadSharedReq_mshr_miss_latency::.cpu.inst       309000                       # number of ReadSharedReq MSHR miss cycles
system.l2cache.ReadSharedReq_mshr_miss_latency::.cpu.data       132000                       # number of ReadSharedReq MSHR miss cycles
[...]
system.mem_ctrl.dram.bytes_read::.cpu.inst          320                       # Number of bytes read from this memory
system.mem_ctrl.dram.bytes_read::.cpu.data          128                       # Number of bytes read from this memory
system.mem_ctrl.dram.bytes_read::total            448                       # Number of bytes read from this memory
system.mem_ctrl.dram.bytes_inst_read::.cpu.inst          320                       # Number of instructions bytes read from this memory
system.mem_ctrl.dram.bytes_inst_read::total          320                       # Number of instructions bytes read from this memory
system.mem_ctrl.dram.num_reads::.cpu.inst            5                       # Number of read requests responded to by this memory
system.mem_ctrl.dram.num_reads::.cpu.data            2                       # Number of read requests responded to by this memory
system.mem_ctrl.dram.num_reads::total               7                       # Number of read requests responded to by this memory
system.mem_ctrl.dram.bw_read::.cpu.inst      10341930                       # Total read bandwidth from this memory (bytes/s)
system.mem_ctrl.dram.bw_read::.cpu.data       4136772                       # Total read bandwidth from this memory (bytes/s)
system.mem_ctrl.dram.bw_read::total          14478702                       # Total read bandwidth from this memory (bytes/s)
system.mem_ctrl.dram.bw_inst_read::.cpu.inst     10341930                       # Instruction read bandwidth from this memory (bytes/s)
system.mem_ctrl.dram.bw_inst_read::total     10341930                       # Instruction read bandwidth from this memory (bytes/s)
system.mem_ctrl.dram.bw_total::.cpu.inst     10341930                       # Total bandwidth to/from this memory (bytes/s)
system.mem_ctrl.dram.bw_total::.cpu.data      4136772                       # Total bandwidth to/from this memory (bytes/s)
system.mem_ctrl.dram.bw_total::total         14478702                       # Total bandwidth to/from this memory (bytes/s)
system.mem_ctrl.dram.readBursts                     8                       # Number of DRAM read bursts
system.mem_ctrl.dram.writeBursts                    0                       # Number of DRAM write bursts
system.mem_ctrl.dram.perBankRdBursts::0             5                       # Per bank write bursts
system.mem_ctrl.dram.perBankRdBursts::1             0                       # Per bank write bursts
system.mem_ctrl.dram.perBankRdBursts::2             0                       # Per bank write bursts
system.mem_ctrl.dram.perBankRdBursts::3             0                       # Per bank write bursts
system.mem_ctrl.dram.perBankRdBursts::4             0                       # Per bank write bursts
system.mem_ctrl.dram.perBankRdBursts::5             0                       # Per bank write bursts
system.mem_ctrl.dram.perBankRdBursts::6             0                       # Per bank write bursts
system.mem_ctrl.dram.perBankRdBursts::7             1                       # Per bank write bursts
system.mem_ctrl.dram.perBankRdBursts::8             0                       # Per bank write bursts
system.mem_ctrl.dram.perBankRdBursts::9             0                       # Per bank write bursts
system.mem_ctrl.dram.perBankRdBursts::10            2                       # Per bank write bursts
system.mem_ctrl.dram.perBankRdBursts::11            0                       # Per bank write bursts
system.mem_ctrl.dram.perBankRdBursts::12            0                       # Per bank write bursts
system.mem_ctrl.dram.perBankRdBursts::13            0                       # Per bank write bursts
system.mem_ctrl.dram.perBankRdBursts::14            0                       # Per bank write bursts
system.mem_ctrl.dram.perBankRdBursts::15            0                       # Per bank write bursts
system.mem_ctrl.dram.perBankRdBursts::16            0                       # Per bank write bursts
system.mem_ctrl.dram.perBankRdBursts::17            0                       # Per bank write bursts
system.mem_ctrl.dram.perBankRdBursts::18            0                       # Per bank write bursts
system.mem_ctrl.dram.perBankRdBursts::19            0                       # Per bank write bursts
system.mem_ctrl.dram.perBankRdBursts::20            0                       # Per bank write bursts
system.mem_ctrl.dram.perBankRdBursts::21            0                       # Per bank write bursts
system.mem_ctrl.dram.perBankRdBursts::22            0                       # Per bank write bursts
system.mem_ctrl.dram.perBankRdBursts::23            0                       # Per bank write bursts
system.mem_ctrl.dram.perBankRdBursts::24            0                       # Per bank write bursts
system.mem_ctrl.dram.perBankRdBursts::25            0                       # Per bank write bursts
system.mem_ctrl.dram.perBankRdBursts::26            0                       # Per bank write bursts
system.mem_ctrl.dram.perBankRdBursts::27            0                       # Per bank write bursts
system.mem_ctrl.dram.perBankRdBursts::28            0                       # Per bank write bursts
system.mem_ctrl.dram.perBankRdBursts::29            0                       # Per bank write bursts
system.mem_ctrl.dram.perBankRdBursts::30            0                       # Per bank write bursts
system.mem_ctrl.dram.perBankRdBursts::31            0                       # Per bank write bursts
system.mem_ctrl.dram.perBankWrBursts::0             0                       # Per bank write bursts
system.mem_ctrl.dram.perBankWrBursts::1             0                       # Per bank write bursts
system.mem_ctrl.dram.perBankWrBursts::2             0                       # Per bank write bursts
system.mem_ctrl.dram.perBankWrBursts::3             0                       # Per bank write bursts
system.mem_ctrl.dram.perBankWrBursts::4             0                       # Per bank write bursts
system.mem_ctrl.dram.perBankWrBursts::5             0                       # Per bank write bursts
system.mem_ctrl.dram.perBankWrBursts::6             0                       # Per bank write bursts
system.mem_ctrl.dram.perBankWrBursts::7             0                       # Per bank write bursts
system.mem_ctrl.dram.perBankWrBursts::8             0                       # Per bank write bursts
system.mem_ctrl.dram.perBankWrBursts::9             0                       # Per bank write bursts
system.mem_ctrl.dram.perBankWrBursts::10            0                       # Per bank write bursts
system.mem_ctrl.dram.perBankWrBursts::11            0                       # Per bank write bursts
system.mem_ctrl.dram.perBankWrBursts::12            0                       # Per bank write bursts
system.mem_ctrl.dram.perBankWrBursts::13            0                       # Per bank write bursts
system.mem_ctrl.dram.perBankWrBursts::14            0                       # Per bank write bursts
system.mem_ctrl.dram.perBankWrBursts::15            0                       # Per bank write bursts
system.mem_ctrl.dram.perBankWrBursts::16            0                       # Per bank write bursts
system.mem_ctrl.dram.perBankWrBursts::17            0                       # Per bank write bursts
system.mem_ctrl.dram.perBankWrBursts::18            0                       # Per bank write bursts
system.mem_ctrl.dram.perBankWrBursts::19            0                       # Per bank write bursts
system.mem_ctrl.dram.perBankWrBursts::20            0                       # Per bank write bursts
system.mem_ctrl.dram.perBankWrBursts::21            0                       # Per bank write bursts
system.mem_ctrl.dram.perBankWrBursts::22            0                       # Per bank write bursts
system.mem_ctrl.dram.perBankWrBursts::23            0                       # Per bank write bursts
system.mem_ctrl.dram.perBankWrBursts::24            0                       # Per bank write bursts
system.mem_ctrl.dram.perBankWrBursts::25            0                       # Per bank write bursts
system.mem_ctrl.dram.perBankWrBursts::26            0                       # Per bank write bursts
system.mem_ctrl.dram.perBankWrBursts::27            0                       # Per bank write bursts
system.mem_ctrl.dram.perBankWrBursts::28            0                       # Per bank write bursts
system.mem_ctrl.dram.perBankWrBursts::29            0                       # Per bank write bursts
system.mem_ctrl.dram.perBankWrBursts::30            0                       # Per bank write bursts
system.mem_ctrl.dram.perBankWrBursts::31            0                       # Per bank write bursts
system.mem_ctrl.dram.totQLat                    42812                       # Total ticks spent queuing
system.mem_ctrl.dram.totBusLat                  26656                       # Total ticks spent in databus transfers
system.mem_ctrl.dram.totMemAccLat              182748                       # Total ticks spent from burst creation until serviced by the DRAM
system.mem_ctrl.dram.avgQLat                  5351.50                       # Average queueing delay per DRAM burst
system.mem_ctrl.dram.avgBusLat                3332.00                       # Average bus latency per DRAM burst
system.mem_ctrl.dram.avgMemAccLat            22843.50                       # Average memory access latency per DRAM burst
system.mem_ctrl.dram.readRowHits                    5                       # Number of row buffer hits during reads
system.mem_ctrl.dram.writeRowHits                   0                       # Number of row buffer hits during writes
system.mem_ctrl.dram.readRowHitRate             62.50                       # Row buffer hit rate for reads
system.mem_ctrl.dram.writeRowHitRate              nan                       # Row buffer hit rate for writes
system.mem_ctrl.dram.bytesPerActivate::samples           17                       # Bytes accessed per row activation
system.mem_ctrl.dram.bytesPerActivate::mean   180.705882                       # Bytes accessed per row activation
system.mem_ctrl.dram.bytesPerActivate::gmean   144.868332                       # Bytes accessed per row activation
system.mem_ctrl.dram.bytesPerActivate::stdev   118.086708                       # Bytes accessed per row activation
system.mem_ctrl.dram.bytesPerActivate::64-95            6     35.29%     35.29% # Bytes accessed per row activation
system.mem_ctrl.dram.bytesPerActivate::128-159            3     17.65%     52.94% # Bytes accessed per row activation
system.mem_ctrl.dram.bytesPerActivate::192-223            1      5.88%     58.82% # Bytes accessed per row activation
system.mem_ctrl.dram.bytesPerActivate::256-287            4     23.53%     82.35% # Bytes accessed per row activation
system.mem_ctrl.dram.bytesPerActivate::320-351            2     11.76%     94.12% # Bytes accessed per row activation
system.mem_ctrl.dram.bytesPerActivate::448-479            1      5.88%    100.00% # Bytes accessed per row activation
system.mem_ctrl.dram.bytesPerActivate::total           17                       # Bytes accessed per row activation
system.mem_ctrl.dram.bytesRead                    512                       # Total number of bytes read from DRAM
system.mem_ctrl.dram.bytesWritten                   0                       # Total number of bytes written to DRAM
system.mem_ctrl.dram.avgRdBW                16.547088                       # Average DRAM read bandwidth in MiBytes/s
system.mem_ctrl.dram.avgWrBW                        0                       # Average DRAM write bandwidth in MiBytes/s
system.mem_ctrl.dram.peakBW                  19207.00                       # Theoretical peak bandwidth in MiByte/s
system.mem_ctrl.dram.busUtil                     0.09                       # Data bus utilization in percentage
system.mem_ctrl.dram.busUtilRead                 0.09                       # Data bus utilization in percentage for reads
system.mem_ctrl.dram.busUtilWrite                0.00                       # Data bus utilization in percentage for writes
system.mem_ctrl.dram.pageHitRate                62.50                       # Row buffer hit rate, read and write combined
system.mem_ctrl.dram.power_state.pwrStateResidencyTicks::UNDEFINED     65809000                       # Cumulative time (in ticks) in various power states
system.mem_ctrl.dram.rank0.actEnergy     81087.552000                       # Energy for activate commands per rank (pJ)
system.mem_ctrl.dram.rank0.preEnergy     99512.179200                       # Energy for precharge commands per rank (pJ)
system.mem_ctrl.dram.rank0.readEnergy    277616.908800                       # Energy for read commands per rank (pJ)
system.mem_ctrl.dram.rank0.writeEnergy              0                       # Energy for write commands per rank (pJ)
system.mem_ctrl.dram.rank0.refreshEnergy 5541510.508800                       # Energy for refresh commands per rank (pJ)
system.mem_ctrl.dram.rank0.actBackEnergy 7523737.300800                       # Energy for active background per rank (pJ)
system.mem_ctrl.dram.rank0.preBackEnergy 16610920.972800                       # Energy for precharge background per rank (pJ)
system.mem_ctrl.dram.rank0.actPowerDownEnergy            0                       # Energy for active power-down per rank (pJ)
system.mem_ctrl.dram.rank0.prePowerDownEnergy            0                       # Energy for precharge power-down per rank (pJ)
system.mem_ctrl.dram.rank0.selfRefreshEnergy            0                       # Energy for self refresh per rank (pJ)
system.mem_ctrl.dram.rank0.totalEnergy   30134385.422400                       # Total energy per rank (pJ)
system.mem_ctrl.dram.rank0.averagePower    973.899083                       # Core power per rank (mW)
system.mem_ctrl.dram.rank0.totalIdleTime            0                       # Total Idle time Per DRAM Rank
system.mem_ctrl.dram.rank0.pwrStateTime::IDLE     25377640                       # Time in different power states
system.mem_ctrl.dram.rank0.pwrStateTime::REF      1400000                       # Time in different power states
system.mem_ctrl.dram.rank0.pwrStateTime::SREF            0                       # Time in different power states
system.mem_ctrl.dram.rank0.pwrStateTime::PRE_PDN            0                       # Time in different power states
system.mem_ctrl.dram.rank0.pwrStateTime::ACT      7523840                       # Time in different power states
system.mem_ctrl.dram.rank0.pwrStateTime::ACT_PDN            0                       # Time in different power states
system.mem_ctrl.dram.rank1.actEnergy     21831.264000                       # Energy for activate commands per rank (pJ)
system.mem_ctrl.dram.rank1.preEnergy     29024.385600                       # Energy for precharge commands per rank (pJ)
system.mem_ctrl.dram.rank1.readEnergy    50475.801600                       # Energy for read commands per rank (pJ)
system.mem_ctrl.dram.rank1.writeEnergy              0                       # Energy for write commands per rank (pJ)
system.mem_ctrl.dram.rank1.refreshEnergy 5541510.508800                       # Energy for refresh commands per rank (pJ)
system.mem_ctrl.dram.rank1.actBackEnergy 7448719.320000                       # Energy for active background per rank (pJ)
system.mem_ctrl.dram.rank1.preBackEnergy 16668561.907200                       # Energy for precharge background per rank (pJ)
system.mem_ctrl.dram.rank1.actPowerDownEnergy            0                       # Energy for active power-down per rank (pJ)
system.mem_ctrl.dram.rank1.prePowerDownEnergy            0                       # Energy for precharge power-down per rank (pJ)
system.mem_ctrl.dram.rank1.selfRefreshEnergy            0                       # Energy for self refresh per rank (pJ)
system.mem_ctrl.dram.rank1.totalEnergy   29760123.187200                       # Total energy per rank (pJ)
system.mem_ctrl.dram.rank1.averagePower    961.803477                       # Core power per rank (mW)
system.mem_ctrl.dram.rank1.totalIdleTime            0                       # Total Idle time Per DRAM Rank
system.mem_ctrl.dram.rank1.pwrStateTime::IDLE     25465640                       # Time in different power states
system.mem_ctrl.dram.rank1.pwrStateTime::REF      1400000                       # Time in different power states
system.mem_ctrl.dram.rank1.pwrStateTime::SREF            0                       # Time in different power states
system.mem_ctrl.dram.rank1.pwrStateTime::PRE_PDN            0                       # Time in different power states
system.mem_ctrl.dram.rank1.pwrStateTime::ACT      7435840                       # Time in different power states
system.mem_ctrl.dram.rank1.pwrStateTime::ACT_PDN            0                       # Time in different power states
system.mem_ctrl.power_state.pwrStateResidencyTicks::UNDEFINED     65809000                       # Cumulative time (in ticks) in various power states
system.membus.trans_dist::ReadResp                  7                       # Transaction distribution
system.membus.trans_dist::ReadSharedReq             8                       # Transaction distribution
system.membus.pkt_count_system.l2cache.mem_side_port::system.mem_ctrl.port           15                       # Packet count per connected requestor and responder (bytes)
system.membus.pkt_count_system.l2cache.mem_side_port::total           15                       # Packet count per connected requestor and responder (bytes)
system.membus.pkt_count::total                     15                       # Packet count per connected requestor and responder (bytes)
system.membus.pkt_size_system.l2cache.mem_side_port::system.mem_ctrl.port          448                       # Cumulative packet size per connected requestor and responder (bytes)
system.membus.pkt_size_system.l2cache.mem_side_port::total          448                       # Cumulative packet size per connected requestor and responder (bytes)
system.membus.pkt_size::total                     448                       # Cumulative packet size per connected requestor and responder (bytes)
system.membus.snoops                                0                       # Total snoops (count)
system.membus.snoopTraffic                          0                       # Total snoop traffic (bytes)
system.membus.snoop_fanout::samples                 8                       # Request fanout histogram
system.membus.snoop_fanout::mean                    0                       # Request fanout histogram
system.membus.snoop_fanout::stdev                   0                       # Request fanout histogram
system.membus.snoop_fanout::underflows              0      0.00%      0.00% # Request fanout histogram
system.membus.snoop_fanout::0                       8    100.00%    100.00% # Request fanout histogram
system.membus.snoop_fanout::1                       0      0.00%    100.00% # Request fanout histogram
system.membus.snoop_fanout::overflows               0      0.00%    100.00% # Request fanout histogram
system.membus.snoop_fanout::min_value               0                       # Request fanout histogram
system.membus.snoop_fanout::max_value               0                       # Request fanout histogram
system.membus.snoop_fanout::total                   8                       # Request fanout histogram
system.membus.power_state.pwrStateResidencyTicks::UNDEFINED     65809000                       # Cumulative time (in ticks) in various power states
system.membus.reqLayer0.occupancy                8000                       # Layer occupancy (ticks)
system.membus.reqLayer0.utilization               0.0                       # Layer utilization (%)
system.membus.respLayer0.occupancy              16904                       # Layer occupancy (ticks)
system.membus.respLayer0.utilization              0.1                       # Layer utilization (%)

---------- End Simulation Statistics   ----------
