
---------- Begin Simulation Statistics ----------
final_tick                                16066925000                       # Number of ticks from beginning of simulation (restored from checkpoints and never reset)
host_inst_rate                                  72444                       # Simulator instruction rate (inst/s)
host_mem_usage                                 675120                       # Number of bytes of host memory used
host_op_rate                                   136649                       # Simulator op (including micro ops) rate (op/s)
host_seconds                                   414.11                       # Real time elapsed on the host
host_tick_rate                               38798583                       # Simulator tick rate (ticks/s)
sim_freq                                 1000000000000                       # Frequency of simulated ticks
sim_insts                                    30000004                       # Number of instructions simulated
sim_ops                                      56587904                       # Number of ops (including micro ops) simulated
sim_seconds                                  0.016067                       # Number of seconds simulated
sim_ticks                                 16066925000                       # Number of ticks simulated
system.cpu.cc_regfile_reads                  36706188                       # number of cc regfile reads
system.cpu.cc_regfile_writes                 17595625                       # number of cc regfile writes
system.cpu.committedInsts                    30000004                       # Number of Instructions Simulated
system.cpu.committedOps                      56587904                       # Number of Ops (including micro ops) Simulated
system.cpu.cpi                               1.071128                       # CPI: Cycles Per Instruction
system.cpu.cpi_total                         1.071128                       # CPI: Total CPI of All Threads
system.cpu.fp_regfile_reads                   1606415                       # number of floating regfile reads
system.cpu.fp_regfile_writes                   883847                       # number of floating regfile writes
system.cpu.idleCycles                           85290                       # Total number of cycles that the CPU has spent unscheduled due to idling
system.cpu.iew.branchMispredicts               229194                       # Number of branch mispredicts detected at execute
system.cpu.iew.exec_branches                  6606309                       # Number of branches executed
system.cpu.iew.exec_nop                             0                       # number of nop insts executed
system.cpu.iew.exec_rate                     1.859849                       # Inst execution rate
system.cpu.iew.exec_refs                     12082287                       # number of memory reference insts executed
system.cpu.iew.exec_stores                    4981488                       # Number of stores executed
system.cpu.iew.exec_swp                             0                       # number of swp insts executed
system.cpu.iew.iewBlockCycles                 2438237                       # Number of cycles IEW is blocking
system.cpu.iew.iewDispLoadInsts               7215807                       # Number of dispatched load instructions
system.cpu.iew.iewDispNonSpecInsts                 73                       # Number of dispatched non-speculative instructions
system.cpu.iew.iewDispSquashedInsts              4375                       # Number of squashed instructions skipped by dispatch
system.cpu.iew.iewDispStoreInsts              5061526                       # Number of dispatched store instructions
system.cpu.iew.iewDispatchedInsts            61263195                       # Number of instructions dispatched to IQ
system.cpu.iew.iewExecLoadInsts               7100799                       # Number of load instructions executed
system.cpu.iew.iewExecSquashedInsts            468093                       # Number of squashed instructions skipped in execute
system.cpu.iew.iewExecutedInsts              59764121                       # Number of executed instructions
system.cpu.iew.iewIQFullEvents                  22481                       # Number of times the IQ has become full, causing a stall
system.cpu.iew.iewIdleCycles                        0                       # Number of cycles IEW is idle
system.cpu.iew.iewLSQFullEvents               2150546                       # Number of times the LSQ has become full, causing a stall
system.cpu.iew.iewSquashCycles                 170793                       # Number of cycles IEW is squashing
system.cpu.iew.iewUnblockCycles               2191558                       # Number of cycles IEW is unblocking
system.cpu.iew.memOrderViolationEvents            430                       # Number of memory order violations
system.cpu.iew.predictedNotTakenIncorrect       180390                       # Number of branches that were predicted not taken incorrectly
system.cpu.iew.predictedTakenIncorrect          48804                       # Number of branches that were predicted taken incorrectly
system.cpu.iew.wb_consumers                  67653435                       # num instructions consuming a value
system.cpu.iew.wb_count                      59607520                       # cumulative count of insts written-back
system.cpu.iew.wb_fanout                     0.608583                       # average fanout of values written-back
system.cpu.iew.wb_producers                  41172745                       # num instructions producing a value
system.cpu.iew.wb_rate                       1.854976                       # insts written-back per cycle
system.cpu.iew.wb_sent                       59665140                       # cumulative count of insts sent to commit
system.cpu.int_regfile_reads                 92841314                       # number of integer regfile reads
system.cpu.int_regfile_writes                47700014                       # number of integer regfile writes
system.cpu.ipc                               0.933595                       # IPC: Instructions Per Cycle
system.cpu.ipc_total                         0.933595                       # IPC: Total IPC of All Threads
system.cpu.iq.FU_type_0::No_OpClass            587615      0.98%      0.98% # Type of FU issued
system.cpu.iq.FU_type_0::IntAlu              46119511     76.57%     77.55% # Type of FU issued
system.cpu.iq.FU_type_0::IntMult               259204      0.43%     77.98% # Type of FU issued
system.cpu.iq.FU_type_0::IntDiv                373151      0.62%     78.59% # Type of FU issued
system.cpu.iq.FU_type_0::FloatAdd              128472      0.21%     78.81% # Type of FU issued
system.cpu.iq.FU_type_0::FloatCmp                   0      0.00%     78.81% # Type of FU issued
system.cpu.iq.FU_type_0::FloatCvt                  32      0.00%     78.81% # Type of FU issued
system.cpu.iq.FU_type_0::FloatMult                  0      0.00%     78.81% # Type of FU issued
system.cpu.iq.FU_type_0::FloatMultAcc               0      0.00%     78.81% # Type of FU issued
system.cpu.iq.FU_type_0::FloatDiv                   0      0.00%     78.81% # Type of FU issued
system.cpu.iq.FU_type_0::FloatMisc                  0      0.00%     78.81% # Type of FU issued
system.cpu.iq.FU_type_0::FloatSqrt                  0      0.00%     78.81% # Type of FU issued
system.cpu.iq.FU_type_0::SimdAdd                  491      0.00%     78.81% # Type of FU issued
system.cpu.iq.FU_type_0::SimdAddAcc                 0      0.00%     78.81% # Type of FU issued
system.cpu.iq.FU_type_0::SimdAlu                65642      0.11%     78.92% # Type of FU issued
system.cpu.iq.FU_type_0::SimdCmp                   20      0.00%     78.92% # Type of FU issued
system.cpu.iq.FU_type_0::SimdCvt               105264      0.17%     79.09% # Type of FU issued
system.cpu.iq.FU_type_0::SimdMisc              371673      0.62%     79.71% # Type of FU issued
system.cpu.iq.FU_type_0::SimdMult                   0      0.00%     79.71% # Type of FU issued
system.cpu.iq.FU_type_0::SimdMultAcc                0      0.00%     79.71% # Type of FU issued
system.cpu.iq.FU_type_0::SimdShift                385      0.00%     79.71% # Type of FU issued
system.cpu.iq.FU_type_0::SimdShiftAcc               0      0.00%     79.71% # Type of FU issued
system.cpu.iq.FU_type_0::SimdDiv                    0      0.00%     79.71% # Type of FU issued
system.cpu.iq.FU_type_0::SimdSqrt                   0      0.00%     79.71% # Type of FU issued
system.cpu.iq.FU_type_0::SimdFloatAdd               0      0.00%     79.71% # Type of FU issued
system.cpu.iq.FU_type_0::SimdFloatAlu               0      0.00%     79.71% # Type of FU issued
system.cpu.iq.FU_type_0::SimdFloatCmp               0      0.00%     79.71% # Type of FU issued
system.cpu.iq.FU_type_0::SimdFloatCvt               4      0.00%     79.71% # Type of FU issued
system.cpu.iq.FU_type_0::SimdFloatDiv               0      0.00%     79.71% # Type of FU issued
system.cpu.iq.FU_type_0::SimdFloatMisc              0      0.00%     79.71% # Type of FU issued
system.cpu.iq.FU_type_0::SimdFloatMult              2      0.00%     79.71% # Type of FU issued
system.cpu.iq.FU_type_0::SimdFloatMultAcc            0      0.00%     79.71% # Type of FU issued
system.cpu.iq.FU_type_0::SimdFloatSqrt              0      0.00%     79.71% # Type of FU issued
system.cpu.iq.FU_type_0::SimdReduceAdd              0      0.00%     79.71% # Type of FU issued
system.cpu.iq.FU_type_0::SimdReduceAlu              0      0.00%     79.71% # Type of FU issued
system.cpu.iq.FU_type_0::SimdReduceCmp              0      0.00%     79.71% # Type of FU issued
system.cpu.iq.FU_type_0::SimdFloatReduceAdd            0      0.00%     79.71% # Type of FU issued
system.cpu.iq.FU_type_0::SimdFloatReduceCmp            0      0.00%     79.71% # Type of FU issued
system.cpu.iq.FU_type_0::SimdAes                    0      0.00%     79.71% # Type of FU issued
system.cpu.iq.FU_type_0::SimdAesMix                 0      0.00%     79.71% # Type of FU issued
system.cpu.iq.FU_type_0::SimdSha1Hash               0      0.00%     79.71% # Type of FU issued
system.cpu.iq.FU_type_0::SimdSha1Hash2              0      0.00%     79.71% # Type of FU issued
system.cpu.iq.FU_type_0::SimdSha256Hash             0      0.00%     79.71% # Type of FU issued
system.cpu.iq.FU_type_0::SimdSha256Hash2            0      0.00%     79.71% # Type of FU issued
system.cpu.iq.FU_type_0::SimdShaSigma2              0      0.00%     79.71% # Type of FU issued
system.cpu.iq.FU_type_0::SimdShaSigma3              0      0.00%     79.71% # Type of FU issued
system.cpu.iq.FU_type_0::SimdPredAlu                0      0.00%     79.71% # Type of FU issued
system.cpu.iq.FU_type_0::MemRead              6909173     11.47%     91.18% # Type of FU issued
system.cpu.iq.FU_type_0::MemWrite             4574794      7.60%     98.78% # Type of FU issued
system.cpu.iq.FU_type_0::FloatMemRead          287320      0.48%     99.25% # Type of FU issued
system.cpu.iq.FU_type_0::FloatMemWrite         449463      0.75%    100.00% # Type of FU issued
system.cpu.iq.FU_type_0::IprAccess                  0      0.00%    100.00% # Type of FU issued
system.cpu.iq.FU_type_0::InstPrefetch               0      0.00%    100.00% # Type of FU issued
system.cpu.iq.FU_type_0::total               60232216                       # Type of FU issued
system.cpu.iq.fp_alu_accesses                 1521928                       # Number of floating point alu accesses
system.cpu.iq.fp_inst_queue_reads             3012543                       # Number of floating instruction queue reads
system.cpu.iq.fp_inst_queue_wakeup_accesses      1426728                       # Number of floating instruction queue wakeup accesses
system.cpu.iq.fp_inst_queue_writes            1833847                       # Number of floating instruction queue writes
system.cpu.iq.fu_busy_cnt                     1028733                       # FU busy when requested
system.cpu.iq.fu_busy_rate                   0.017079                       # FU busy rate (busy events/executed inst)
system.cpu.iq.fu_full::No_OpClass                   0      0.00%      0.00% # attempts to use FU when none available
system.cpu.iq.fu_full::IntAlu                  849658     82.59%     82.59% # attempts to use FU when none available
system.cpu.iq.fu_full::IntMult                      0      0.00%     82.59% # attempts to use FU when none available
system.cpu.iq.fu_full::IntDiv                       0      0.00%     82.59% # attempts to use FU when none available
system.cpu.iq.fu_full::FloatAdd                     0      0.00%     82.59% # attempts to use FU when none available
system.cpu.iq.fu_full::FloatCmp                     0      0.00%     82.59% # attempts to use FU when none available
system.cpu.iq.fu_full::FloatCvt                     0      0.00%     82.59% # attempts to use FU when none available
system.cpu.iq.fu_full::FloatMult                    0      0.00%     82.59% # attempts to use FU when none available
system.cpu.iq.fu_full::FloatMultAcc                 0      0.00%     82.59% # attempts to use FU when none available
system.cpu.iq.fu_full::FloatDiv                     0      0.00%     82.59% # attempts to use FU when none available
system.cpu.iq.fu_full::FloatMisc                    0      0.00%     82.59% # attempts to use FU when none available
system.cpu.iq.fu_full::FloatSqrt                    0      0.00%     82.59% # attempts to use FU when none available
system.cpu.iq.fu_full::SimdAdd                      1      0.00%     82.59% # attempts to use FU when none available
system.cpu.iq.fu_full::SimdAddAcc                   0      0.00%     82.59% # attempts to use FU when none available
system.cpu.iq.fu_full::SimdAlu                     29      0.00%     82.60% # attempts to use FU when none available
system.cpu.iq.fu_full::SimdCmp                      2      0.00%     82.60% # attempts to use FU when none available
system.cpu.iq.fu_full::SimdCvt                    244      0.02%     82.62% # attempts to use FU when none available
system.cpu.iq.fu_full::SimdMisc                    59      0.01%     82.63% # attempts to use FU when none available
system.cpu.iq.fu_full::SimdMult                     0      0.00%     82.63% # attempts to use FU when none available
system.cpu.iq.fu_full::SimdMultAcc                  0      0.00%     82.63% # attempts to use FU when none available
system.cpu.iq.fu_full::SimdShift                    1      0.00%     82.63% # attempts to use FU when none available
system.cpu.iq.fu_full::SimdShiftAcc                 0      0.00%     82.63% # attempts to use FU when none available
system.cpu.iq.fu_full::SimdDiv                      0      0.00%     82.63% # attempts to use FU when none available
system.cpu.iq.fu_full::SimdSqrt                     0      0.00%     82.63% # attempts to use FU when none available
system.cpu.iq.fu_full::SimdFloatAdd                 0      0.00%     82.63% # attempts to use FU when none available
system.cpu.iq.fu_full::SimdFloatAlu                 0      0.00%     82.63% # attempts to use FU when none available
system.cpu.iq.fu_full::SimdFloatCmp                 0      0.00%     82.63% # attempts to use FU when none available
system.cpu.iq.fu_full::SimdFloatCvt                 0      0.00%     82.63% # attempts to use FU when none available
system.cpu.iq.fu_full::SimdFloatDiv                 0      0.00%     82.63% # attempts to use FU when none available
system.cpu.iq.fu_full::SimdFloatMisc                0      0.00%     82.63% # attempts to use FU when none available
system.cpu.iq.fu_full::SimdFloatMult                0      0.00%     82.63% # attempts to use FU when none available
system.cpu.iq.fu_full::SimdFloatMultAcc             0      0.00%     82.63% # attempts to use FU when none available
system.cpu.iq.fu_full::SimdFloatSqrt                0      0.00%     82.63% # attempts to use FU when none available
system.cpu.iq.fu_full::SimdReduceAdd                0      0.00%     82.63% # attempts to use FU when none available
system.cpu.iq.fu_full::SimdReduceAlu                0      0.00%     82.63% # attempts to use FU when none available
system.cpu.iq.fu_full::SimdReduceCmp                0      0.00%     82.63% # attempts to use FU when none available
system.cpu.iq.fu_full::SimdFloatReduceAdd            0      0.00%     82.63% # attempts to use FU when none available
system.cpu.iq.fu_full::SimdFloatReduceCmp            0      0.00%     82.63% # attempts to use FU when none available
system.cpu.iq.fu_full::SimdAes                      0      0.00%     82.63% # attempts to use FU when none available
system.cpu.iq.fu_full::SimdAesMix                   0      0.00%     82.63% # attempts to use FU when none available
system.cpu.iq.fu_full::SimdSha1Hash                 0      0.00%     82.63% # attempts to use FU when none available
system.cpu.iq.fu_full::SimdSha1Hash2                0      0.00%     82.63% # attempts to use FU when none available
system.cpu.iq.fu_full::SimdSha256Hash               0      0.00%     82.63% # attempts to use FU when none available
system.cpu.iq.fu_full::SimdSha256Hash2              0      0.00%     82.63% # attempts to use FU when none available
system.cpu.iq.fu_full::SimdShaSigma2                0      0.00%     82.63% # attempts to use FU when none available
system.cpu.iq.fu_full::SimdShaSigma3                0      0.00%     82.63% # attempts to use FU when none available
system.cpu.iq.fu_full::SimdPredAlu                  0      0.00%     82.63% # attempts to use FU when none available
system.cpu.iq.fu_full::MemRead                  98219      9.55%     92.17% # attempts to use FU when none available
system.cpu.iq.fu_full::MemWrite                 47904      4.66%     96.83% # attempts to use FU when none available
system.cpu.iq.fu_full::FloatMemRead              1058      0.10%     96.93% # attempts to use FU when none available
system.cpu.iq.fu_full::FloatMemWrite            31558      3.07%    100.00% # attempts to use FU when none available
system.cpu.iq.fu_full::IprAccess                    0      0.00%    100.00% # attempts to use FU when none available
system.cpu.iq.fu_full::InstPrefetch                 0      0.00%    100.00% # attempts to use FU when none available
system.cpu.iq.int_alu_accesses               59151406                       # Number of integer alu accesses
system.cpu.iq.int_inst_queue_reads          150549373                       # Number of integer instruction queue reads
system.cpu.iq.int_inst_queue_wakeup_accesses     58180792                       # Number of integer instruction queue wakeup accesses
system.cpu.iq.int_inst_queue_writes          64105029                       # Number of integer instruction queue writes
system.cpu.iq.iqInstsAdded                   61263016                       # Number of instructions added to the IQ (excludes non-spec)
system.cpu.iq.iqInstsIssued                  60232216                       # Number of instructions issued
system.cpu.iq.iqNonSpecInstsAdded                 179                       # Number of non-speculative instructions added to the IQ
system.cpu.iq.iqSquashedInstsExamined         4675270                       # Number of squashed instructions iterated over during squash; mainly for profiling
system.cpu.iq.iqSquashedInstsIssued             20192                       # Number of squashed instructions issued
system.cpu.iq.iqSquashedNonSpecRemoved            113                       # Number of squashed non-spec instructions that were removed
system.cpu.iq.iqSquashedOperandsExamined      5308024                       # Number of squashed operands that are examined and possibly removed from graph
system.cpu.iq.issued_per_cycle::samples      32048561                       # Number of insts issued each cycle
system.cpu.iq.issued_per_cycle::mean         1.879405                       # Number of insts issued each cycle
system.cpu.iq.issued_per_cycle::stdev        2.386303                       # Number of insts issued each cycle
system.cpu.iq.issued_per_cycle::underflows            0      0.00%      0.00% # Number of insts issued each cycle
system.cpu.iq.issued_per_cycle::0            16353831     51.03%     51.03% # Number of insts issued each cycle
system.cpu.iq.issued_per_cycle::1             2214529      6.91%     57.94% # Number of insts issued each cycle
system.cpu.iq.issued_per_cycle::2             2642059      8.24%     66.18% # Number of insts issued each cycle
system.cpu.iq.issued_per_cycle::3             2814740      8.78%     74.96% # Number of insts issued each cycle
system.cpu.iq.issued_per_cycle::4             2301926      7.18%     82.15% # Number of insts issued each cycle
system.cpu.iq.issued_per_cycle::5             1779576      5.55%     87.70% # Number of insts issued each cycle
system.cpu.iq.issued_per_cycle::6             2126845      6.64%     94.34% # Number of insts issued each cycle
system.cpu.iq.issued_per_cycle::7             1097745      3.43%     97.76% # Number of insts issued each cycle
system.cpu.iq.issued_per_cycle::8              717310      2.24%    100.00% # Number of insts issued each cycle
system.cpu.iq.issued_per_cycle::overflows            0      0.00%    100.00% # Number of insts issued each cycle
system.cpu.iq.issued_per_cycle::min_value            0                       # Number of insts issued each cycle
system.cpu.iq.issued_per_cycle::max_value            8                       # Number of insts issued each cycle
system.cpu.iq.issued_per_cycle::total        32048561                       # Number of insts issued each cycle
system.cpu.iq.rate                           1.874416                       # Inst issue rate
system.cpu.iq.vec_alu_accesses                      0                       # Number of vector alu accesses
system.cpu.iq.vec_inst_queue_reads                  0                       # Number of vector instruction queue reads
system.cpu.iq.vec_inst_queue_wakeup_accesses            0                       # Number of vector instruction queue wakeup accesses
system.cpu.iq.vec_inst_queue_writes                 0                       # Number of vector instruction queue writes
system.cpu.memDep0.conflictingLoads            208229                       # Number of conflicting loads.
system.cpu.memDep0.conflictingStores            38082                       # Number of conflicting stores.
system.cpu.memDep0.insertedLoads              7215807                       # Number of loads inserted to the mem dependence unit.
system.cpu.memDep0.insertedStores             5061526                       # Number of stores inserted to the mem dependence unit.
system.cpu.misc_regfile_reads                25179733                       # number of misc regfile reads
system.cpu.misc_regfile_writes                     18                       # number of misc regfile writes
system.cpu.numCycles                         32133851                       # number of cpu cycles simulated
system.cpu.numWorkItemsCompleted                    0                       # number of work items this cpu completed
system.cpu.numWorkItemsStarted                      0                       # number of work items this cpu started
system.cpu.timesIdled                             940                       # Number of times that the entire CPU went into an idle state and unscheduled itself
system.cpu.workload.numSyscalls                    70                       # Number of system calls
system.membus.snoop_filter.hit_multi_requests            0                       # Number of requests hitting in the snoop filter with multiple (>1) holders of the requested data.
system.membus.snoop_filter.hit_multi_snoops            0                       # Number of snoops hitting in the snoop filter with multiple (>1) holders of the requested data.
system.membus.snoop_filter.hit_single_requests       101219                       # Number of requests hitting in the snoop filter with a single holder of the requested data.
system.membus.snoop_filter.hit_single_snoops            0                       # Number of snoops hitting in the snoop filter with a single holder of the requested data.
system.membus.snoop_filter.tot_requests        211162                       # Total number of requests made to the snoop filter.
system.membus.snoop_filter.tot_snoops               0                       # Total number of snoops made to the snoop filter.
system.tol2bus.snoop_filter.hit_multi_requests           22                       # Number of requests hitting in the snoop filter with multiple (>1) holders of the requested data.
system.tol2bus.snoop_filter.hit_multi_snoops            6                       # Number of snoops hitting in the snoop filter with multiple (>1) holders of the requested data.
system.tol2bus.snoop_filter.hit_single_requests       176373                       # Number of requests hitting in the snoop filter with a single holder of the requested data.
system.tol2bus.snoop_filter.hit_single_snoops          698                       # Number of snoops hitting in the snoop filter with a single holder of the requested data.
system.tol2bus.snoop_filter.tot_requests       353765                       # Total number of requests made to the snoop filter.
system.tol2bus.snoop_filter.tot_snoops            704                       # Total number of snoops made to the snoop filter.
system.clk_domain.clock                           250                       # Clock period in ticks
system.cpu.branchPred.lookups                 7299600                       # Number of BP lookups
system.cpu.branchPred.condPredicted           6010213                       # Number of conditional branches predicted
system.cpu.branchPred.condIncorrect            200761                       # Number of conditional branches incorrect
system.cpu.branchPred.BTBLookups              2719182                       # Number of BTB lookups
system.cpu.branchPred.BTBHits                 2618660                       # Number of BTB hits
system.cpu.branchPred.BTBHitPct             96.303226                       # BTB Hit Percentage
system.cpu.branchPred.RASUsed                  361128                       # Number of times the RAS was used to get a target.
system.cpu.branchPred.RASIncorrect                  3                       # Number of incorrect RAS predictions.
system.cpu.branchPred.indirectLookups          174686                       # Number of indirect predictor lookups.
system.cpu.branchPred.indirectHits             158369                       # Number of indirect target hits.
system.cpu.branchPred.indirectMisses            16317                       # Number of indirect misses.
system.cpu.branchPred.indirectMispredicted          348                       # Number of mispredicted indirect branches.
system.cpu.commit.commitSquashedInsts         4652243                       # The number of squashed insts skipped by commit
system.cpu.commit.commitNonSpecStalls              66                       # The number of times commit has been forced to stall to communicate backwards
system.cpu.commit.branchMispredicts            168507                       # The number of times a branch was mispredicted
system.cpu.commit.numCommittedDist::samples     31356649                       # Number of insts commited each cycle
system.cpu.commit.numCommittedDist::mean     1.804654                       # Number of insts commited each cycle
system.cpu.commit.numCommittedDist::stdev     2.666820                       # Number of insts commited each cycle
system.cpu.commit.numCommittedDist::underflows            0      0.00%      0.00% # Number of insts commited each cycle
system.cpu.commit.numCommittedDist::0        17467035     55.70%     55.70% # Number of insts commited each cycle
system.cpu.commit.numCommittedDist::1         3177439     10.13%     65.84% # Number of insts commited each cycle
system.cpu.commit.numCommittedDist::2         1542535      4.92%     70.76% # Number of insts commited each cycle
system.cpu.commit.numCommittedDist::3         2821767      9.00%     79.76% # Number of insts commited each cycle
system.cpu.commit.numCommittedDist::4          822932      2.62%     82.38% # Number of insts commited each cycle
system.cpu.commit.numCommittedDist::5         1018387      3.25%     85.63% # Number of insts commited each cycle
system.cpu.commit.numCommittedDist::6          989194      3.15%     88.78% # Number of insts commited each cycle
system.cpu.commit.numCommittedDist::7          597613      1.91%     90.69% # Number of insts commited each cycle
system.cpu.commit.numCommittedDist::8         2919747      9.31%    100.00% # Number of insts commited each cycle
system.cpu.commit.numCommittedDist::overflows            0      0.00%    100.00% # Number of insts commited each cycle
system.cpu.commit.numCommittedDist::min_value            0                       # Number of insts commited each cycle
system.cpu.commit.numCommittedDist::max_value            8                       # Number of insts commited each cycle
system.cpu.commit.numCommittedDist::total     31356649                       # Number of insts commited each cycle
system.cpu.commit.instsCommitted             30000004                       # Number of instructions committed
system.cpu.commit.opsCommitted               56587904                       # Number of ops (including micro ops) committed
system.cpu.commit.memRefs                    11594550                       # Number of memory references committed
system.cpu.commit.loads                       6715608                       # Number of loads committed
system.cpu.commit.amos                              0                       # Number of atomic instructions committed
system.cpu.commit.membars                          32                       # Number of memory barriers committed
system.cpu.commit.branches                    6289400                       # Number of branches committed
system.cpu.commit.vector                            0                       # Number of committed Vector instructions.
system.cpu.commit.floating                    1300928                       # Number of committed floating point instructions.
system.cpu.commit.integer                    55513569                       # Number of committed integer instructions.
system.cpu.commit.functionCalls                319993                       # Number of function calls committed.
system.cpu.commit.committedInstType_0::No_OpClass       567376      1.00%      1.00% # Class of committed instruction
system.cpu.commit.committedInstType_0::IntAlu     43234612     76.40%     77.41% # Class of committed instruction
system.cpu.commit.committedInstType_0::IntMult       253756      0.45%     77.85% # Class of committed instruction
system.cpu.commit.committedInstType_0::IntDiv       363390      0.64%     78.50% # Class of committed instruction
system.cpu.commit.committedInstType_0::FloatAdd       128023      0.23%     78.72% # Class of committed instruction
system.cpu.commit.committedInstType_0::FloatCmp            0      0.00%     78.72% # Class of committed instruction
system.cpu.commit.committedInstType_0::FloatCvt           32      0.00%     78.72% # Class of committed instruction
system.cpu.commit.committedInstType_0::FloatMult            0      0.00%     78.72% # Class of committed instruction
system.cpu.commit.committedInstType_0::FloatMultAcc            0      0.00%     78.72% # Class of committed instruction
system.cpu.commit.committedInstType_0::FloatDiv            0      0.00%     78.72% # Class of committed instruction
system.cpu.commit.committedInstType_0::FloatMisc            0      0.00%     78.72% # Class of committed instruction
system.cpu.commit.committedInstType_0::FloatSqrt            0      0.00%     78.72% # Class of committed instruction
system.cpu.commit.committedInstType_0::SimdAdd          398      0.00%     78.72% # Class of committed instruction
system.cpu.commit.committedInstType_0::SimdAddAcc            0      0.00%     78.72% # Class of committed instruction
system.cpu.commit.committedInstType_0::SimdAlu        32758      0.06%     78.78% # Class of committed instruction
system.cpu.commit.committedInstType_0::SimdCmp           20      0.00%     78.78% # Class of committed instruction
system.cpu.commit.committedInstType_0::SimdCvt        70786      0.13%     78.91% # Class of committed instruction
system.cpu.commit.committedInstType_0::SimdMisc       342092      0.60%     79.51% # Class of committed instruction
system.cpu.commit.committedInstType_0::SimdMult            0      0.00%     79.51% # Class of committed instruction
system.cpu.commit.committedInstType_0::SimdMultAcc            0      0.00%     79.51% # Class of committed instruction
system.cpu.commit.committedInstType_0::SimdShift          105      0.00%     79.51% # Class of committed instruction
system.cpu.commit.committedInstType_0::SimdShiftAcc            0      0.00%     79.51% # Class of committed instruction
system.cpu.commit.committedInstType_0::SimdDiv            0      0.00%     79.51% # Class of committed instruction
system.cpu.commit.committedInstType_0::SimdSqrt            0      0.00%     79.51% # Class of committed instruction
system.cpu.commit.committedInstType_0::SimdFloatAdd            0      0.00%     79.51% # Class of committed instruction
system.cpu.commit.committedInstType_0::SimdFloatAlu            0      0.00%     79.51% # Class of committed instruction
system.cpu.commit.committedInstType_0::SimdFloatCmp            0      0.00%     79.51% # Class of committed instruction
system.cpu.commit.committedInstType_0::SimdFloatCvt            4      0.00%     79.51% # Class of committed instruction
system.cpu.commit.committedInstType_0::SimdFloatDiv            0      0.00%     79.51% # Class of committed instruction
system.cpu.commit.committedInstType_0::SimdFloatMisc            0      0.00%     79.51% # Class of committed instruction
system.cpu.commit.committedInstType_0::SimdFloatMult            2      0.00%     79.51% # Class of committed instruction
system.cpu.commit.committedInstType_0::SimdFloatMultAcc            0      0.00%     79.51% # Class of committed instruction
system.cpu.commit.committedInstType_0::SimdFloatSqrt            0      0.00%     79.51% # Class of committed instruction
system.cpu.commit.committedInstType_0::SimdReduceAdd            0      0.00%     79.51% # Class of committed instruction
system.cpu.commit.committedInstType_0::SimdReduceAlu            0      0.00%     79.51% # Class of committed instruction
system.cpu.commit.committedInstType_0::SimdReduceCmp            0      0.00%     79.51% # Class of committed instruction
system.cpu.commit.committedInstType_0::SimdFloatReduceAdd            0      0.00%     79.51% # Class of committed instruction
system.cpu.commit.committedInstType_0::SimdFloatReduceCmp            0      0.00%     79.51% # Class of committed instruction
system.cpu.commit.committedInstType_0::SimdAes            0      0.00%     79.51% # Class of committed instruction
system.cpu.commit.committedInstType_0::SimdAesMix            0      0.00%     79.51% # Class of committed instruction
system.cpu.commit.committedInstType_0::SimdSha1Hash            0      0.00%     79.51% # Class of committed instruction
system.cpu.commit.committedInstType_0::SimdSha1Hash2            0      0.00%     79.51% # Class of committed instruction
system.cpu.commit.committedInstType_0::SimdSha256Hash            0      0.00%     79.51% # Class of committed instruction
system.cpu.commit.committedInstType_0::SimdSha256Hash2            0      0.00%     79.51% # Class of committed instruction
system.cpu.commit.committedInstType_0::SimdShaSigma2            0      0.00%     79.51% # Class of committed instruction
system.cpu.commit.committedInstType_0::SimdShaSigma3            0      0.00%     79.51% # Class of committed instruction
system.cpu.commit.committedInstType_0::SimdPredAlu            0      0.00%     79.51% # Class of committed instruction
system.cpu.commit.committedInstType_0::MemRead      6517033     11.52%     91.03% # Class of committed instruction
system.cpu.commit.committedInstType_0::MemWrite      4430951      7.83%     98.86% # Class of committed instruction
system.cpu.commit.committedInstType_0::FloatMemRead       198575      0.35%     99.21% # Class of committed instruction
system.cpu.commit.committedInstType_0::FloatMemWrite       447991      0.79%    100.00% # Class of committed instruction
system.cpu.commit.committedInstType_0::IprAccess            0      0.00%    100.00% # Class of committed instruction
system.cpu.commit.committedInstType_0::InstPrefetch            0      0.00%    100.00% # Class of committed instruction
system.cpu.commit.committedInstType_0::total     56587904                       # Class of committed instruction
system.cpu.commit.commitEligibleSamples       2919747                       # number cycles where commit BW limit reached
system.cpu.dcache.demand_hits::.cpu.data     10362273                       # number of demand (read+write) hits
system.cpu.dcache.demand_hits::total         10362273                       # number of demand (read+write) hits
system.cpu.dcache.overall_hits::.cpu.data     10362273                       # number of overall hits
system.cpu.dcache.overall_hits::total        10362273                       # number of overall hits
system.cpu.dcache.demand_misses::.cpu.data       182613                       # number of demand (read+write) misses
system.cpu.dcache.demand_misses::total         182613                       # number of demand (read+write) misses
system.cpu.dcache.overall_misses::.cpu.data       182613                       # number of overall misses
system.cpu.dcache.overall_misses::total        182613                       # number of overall misses
system.cpu.dcache.demand_miss_latency::.cpu.data  12142101998                       # number of demand (read+write) miss cycles
system.cpu.dcache.demand_miss_latency::total  12142101998                       # number of demand (read+write) miss cycles
system.cpu.dcache.overall_miss_latency::.cpu.data  12142101998                       # number of overall miss cycles
system.cpu.dcache.overall_miss_latency::total  12142101998                       # number of overall miss cycles
system.cpu.dcache.demand_accesses::.cpu.data     10544886                       # number of demand (read+write) accesses
system.cpu.dcache.demand_accesses::total     10544886                       # number of demand (read+write) accesses
system.cpu.dcache.overall_accesses::.cpu.data     10544886                       # number of overall (read+write) accesses
system.cpu.dcache.overall_accesses::total     10544886                       # number of overall (read+write) accesses
system.cpu.dcache.demand_miss_rate::.cpu.data     0.017318                       # miss rate for demand accesses
system.cpu.dcache.demand_miss_rate::total     0.017318                       # miss rate for demand accesses
system.cpu.dcache.overall_miss_rate::.cpu.data     0.017318                       # miss rate for overall accesses
system.cpu.dcache.overall_miss_rate::total     0.017318                       # miss rate for overall accesses
system.cpu.dcache.demand_avg_miss_latency::.cpu.data 66490.896037                       # average overall miss latency
system.cpu.dcache.demand_avg_miss_latency::total 66490.896037                       # average overall miss latency
system.cpu.dcache.overall_avg_miss_latency::.cpu.data 66490.896037                       # average overall miss latency
system.cpu.dcache.overall_avg_miss_latency::total 66490.896037                       # average overall miss latency
system.cpu.dcache.blocked_cycles::no_mshrs        16550                       # number of cycles access was blocked
system.cpu.dcache.blocked_cycles::no_targets           34                       # number of cycles access was blocked
system.cpu.dcache.blocked::no_mshrs               430                       # number of cycles access was blocked
system.cpu.dcache.blocked::no_targets               1                       # number of cycles access was blocked
system.cpu.dcache.avg_blocked_cycles::no_mshrs    38.488372                       # average number of cycles each access was blocked
system.cpu.dcache.avg_blocked_cycles::no_targets           34                       # average number of cycles each access was blocked
system.cpu.dcache.writebacks::.writebacks       121081                       # number of writebacks
system.cpu.dcache.writebacks::total            121081                       # number of writebacks
system.cpu.dcache.demand_mshr_hits::.cpu.data        54631                       # number of demand (read+write) MSHR hits
system.cpu.dcache.demand_mshr_hits::total        54631                       # number of demand (read+write) MSHR hits
system.cpu.dcache.overall_mshr_hits::.cpu.data        54631                       # number of overall MSHR hits
system.cpu.dcache.overall_mshr_hits::total        54631                       # number of overall MSHR hits
system.cpu.dcache.demand_mshr_misses::.cpu.data       127982                       # number of demand (read+write) MSHR misses
system.cpu.dcache.demand_mshr_misses::total       127982                       # number of demand (read+write) MSHR misses
system.cpu.dcache.overall_mshr_misses::.cpu.data       127982                       # number of overall MSHR misses
system.cpu.dcache.overall_mshr_misses::total       127982                       # number of overall MSHR misses
system.cpu.dcache.demand_mshr_miss_latency::.cpu.data   9250341498                       # number of demand (read+write) MSHR miss cycles
system.cpu.dcache.demand_mshr_miss_latency::total   9250341498                       # number of demand (read+write) MSHR miss cycles
system.cpu.dcache.overall_mshr_miss_latency::.cpu.data   9250341498                       # number of overall MSHR miss cycles
system.cpu.dcache.overall_mshr_miss_latency::total   9250341498                       # number of overall MSHR miss cycles
system.cpu.dcache.demand_mshr_miss_rate::.cpu.data     0.012137                       # mshr miss rate for demand accesses
system.cpu.dcache.demand_mshr_miss_rate::total     0.012137                       # mshr miss rate for demand accesses
system.cpu.dcache.overall_mshr_miss_rate::.cpu.data     0.012137                       # mshr miss rate for overall accesses
system.cpu.dcache.overall_mshr_miss_rate::total     0.012137                       # mshr miss rate for overall accesses
system.cpu.dcache.demand_avg_mshr_miss_latency::.cpu.data 72278.457111                       # average overall mshr miss latency
system.cpu.dcache.demand_avg_mshr_miss_latency::total 72278.457111                       # average overall mshr miss latency
system.cpu.dcache.overall_avg_mshr_miss_latency::.cpu.data 72278.457111                       # average overall mshr miss latency
system.cpu.dcache.overall_avg_mshr_miss_latency::total 72278.457111                       # average overall mshr miss latency
system.cpu.dcache.replacements                 127469                       # number of replacements
system.cpu.dcache.ReadReq_hits::.cpu.data      5587690                       # number of ReadReq hits
system.cpu.dcache.ReadReq_hits::total         5587690                       # number of ReadReq hits
system.cpu.dcache.ReadReq_misses::.cpu.data        78251                       # number of ReadReq misses
system.cpu.dcache.ReadReq_misses::total         78251                       # number of ReadReq misses
system.cpu.dcache.ReadReq_miss_latency::.cpu.data   4482021500                       # number of ReadReq miss cycles
system.cpu.dcache.ReadReq_miss_latency::total   4482021500                       # number of ReadReq miss cycles
system.cpu.dcache.ReadReq_accesses::.cpu.data      5665941                       # number of ReadReq accesses(hits+misses)
system.cpu.dcache.ReadReq_accesses::total      5665941                       # number of ReadReq accesses(hits+misses)
system.cpu.dcache.ReadReq_miss_rate::.cpu.data     0.013811                       # miss rate for ReadReq accesses
system.cpu.dcache.ReadReq_miss_rate::total     0.013811                       # miss rate for ReadReq accesses
system.cpu.dcache.ReadReq_avg_miss_latency::.cpu.data 57277.498051                       # average ReadReq miss latency
system.cpu.dcache.ReadReq_avg_miss_latency::total 57277.498051                       # average ReadReq miss latency
system.cpu.dcache.ReadReq_mshr_hits::.cpu.data        46662                       # number of ReadReq MSHR hits
system.cpu.dcache.ReadReq_mshr_hits::total        46662                       # number of ReadReq MSHR hits
system.cpu.dcache.ReadReq_mshr_misses::.cpu.data        31589                       # number of ReadReq MSHR misses
system.cpu.dcache.ReadReq_mshr_misses::total        31589                       # number of ReadReq MSHR misses
system.cpu.dcache.ReadReq_mshr_miss_latency::.cpu.data   1834686000                       # number of ReadReq MSHR miss cycles
system.cpu.dcache.ReadReq_mshr_miss_latency::total   1834686000                       # number of ReadReq MSHR miss cycles
system.cpu.dcache.ReadReq_mshr_miss_rate::.cpu.data     0.005575                       # mshr miss rate for ReadReq accesses
system.cpu.dcache.ReadReq_mshr_miss_rate::total     0.005575                       # mshr miss rate for ReadReq accesses
system.cpu.dcache.ReadReq_avg_mshr_miss_latency::.cpu.data 58079.901231                       # average ReadReq mshr miss latency
system.cpu.dcache.ReadReq_avg_mshr_miss_latency::total 58079.901231                       # average ReadReq mshr miss latency
system.cpu.dcache.WriteReq_hits::.cpu.data      4774583                       # number of WriteReq hits
system.cpu.dcache.WriteReq_hits::total        4774583                       # number of WriteReq hits
system.cpu.dcache.WriteReq_misses::.cpu.data       104362                       # number of WriteReq misses
system.cpu.dcache.WriteReq_misses::total       104362                       # number of WriteReq misses
system.cpu.dcache.WriteReq_miss_latency::.cpu.data   7660080498                       # number of WriteReq miss cycles
system.cpu.dcache.WriteReq_miss_latency::total   7660080498                       # number of WriteReq miss cycles
system.cpu.dcache.WriteReq_accesses::.cpu.data      4878945                       # number of WriteReq accesses(hits+misses)
system.cpu.dcache.WriteReq_accesses::total      4878945                       # number of WriteReq accesses(hits+misses)
system.cpu.dcache.WriteReq_miss_rate::.cpu.data     0.021390                       # miss rate for WriteReq accesses
system.cpu.dcache.WriteReq_miss_rate::total     0.021390                       # miss rate for WriteReq accesses
system.cpu.dcache.WriteReq_avg_miss_latency::.cpu.data 73399.134723                       # average WriteReq miss latency
system.cpu.dcache.WriteReq_avg_miss_latency::total 73399.134723                       # average WriteReq miss latency
system.cpu.dcache.WriteReq_mshr_hits::.cpu.data         7969                       # number of WriteReq MSHR hits
system.cpu.dcache.WriteReq_mshr_hits::total         7969                       # number of WriteReq MSHR hits
system.cpu.dcache.WriteReq_mshr_misses::.cpu.data        96393                       # number of WriteReq MSHR misses
system.cpu.dcache.WriteReq_mshr_misses::total        96393                       # number of WriteReq MSHR misses
system.cpu.dcache.WriteReq_mshr_miss_latency::.cpu.data   7415655498                       # number of WriteReq MSHR miss cycles
system.cpu.dcache.WriteReq_mshr_miss_latency::total   7415655498                       # number of WriteReq MSHR miss cycles
system.cpu.dcache.WriteReq_mshr_miss_rate::.cpu.data     0.019757                       # mshr miss rate for WriteReq accesses
system.cpu.dcache.WriteReq_mshr_miss_rate::total     0.019757                       # mshr miss rate for WriteReq accesses
system.cpu.dcache.WriteReq_avg_mshr_miss_latency::.cpu.data 76931.473219                       # average WriteReq mshr miss latency
system.cpu.dcache.WriteReq_avg_mshr_miss_latency::total 76931.473219                       # average WriteReq mshr miss latency
system.cpu.dcache.power_state.pwrStateResidencyTicks::UNDEFINED  16066925000                       # Cumulative time (in ticks) in various power states
system.cpu.dcache.tags.tagsinuse           511.058255                       # Cycle average of tags in use
system.cpu.dcache.tags.total_refs            10490255                       # Total number of references to valid blocks.
system.cpu.dcache.tags.sampled_refs            127981                       # Sample count of references to valid blocks.
system.cpu.dcache.tags.avg_refs             81.967284                       # Average number of references to valid blocks.
system.cpu.dcache.tags.warmup_cycle            163000                       # Cycle when the warmup percentage was hit.
system.cpu.dcache.tags.occ_blocks::.cpu.data   511.058255                       # Average occupied blocks per requestor
system.cpu.dcache.tags.occ_percent::.cpu.data     0.998161                       # Average percentage of cache occupancy
system.cpu.dcache.tags.occ_percent::total     0.998161                       # Average percentage of cache occupancy
system.cpu.dcache.tags.occ_task_id_blocks::1024          512                       # Occupied blocks per task id
system.cpu.dcache.tags.age_task_id_blocks_1024::0           71                       # Occupied blocks per task id
system.cpu.dcache.tags.age_task_id_blocks_1024::1          340                       # Occupied blocks per task id
system.cpu.dcache.tags.age_task_id_blocks_1024::2           69                       # Occupied blocks per task id
system.cpu.dcache.tags.age_task_id_blocks_1024::3           29                       # Occupied blocks per task id
system.cpu.dcache.tags.age_task_id_blocks_1024::4            3                       # Occupied blocks per task id
system.cpu.dcache.tags.occ_task_id_percent::1024            1                       # Percentage of cache occupancy per task id
system.cpu.dcache.tags.tag_accesses          21217753                       # Number of tag accesses
system.cpu.dcache.tags.data_accesses         21217753                       # Number of data accesses
system.cpu.dcache.tags.power_state.pwrStateResidencyTicks::UNDEFINED  16066925000                       # Cumulative time (in ticks) in various power states
system.cpu.decode.idleCycles                  5865663                       # Number of cycles decode is idle
system.cpu.decode.blockedCycles              16072929                       # Number of cycles decode is blocked
system.cpu.decode.runCycles                   9017352                       # Number of cycles decode is running
system.cpu.decode.unblockCycles                921824                       # Number of cycles decode is unblocking
system.cpu.decode.squashCycles                 170793                       # Number of cycles decode is squashing
system.cpu.decode.branchResolved              2609755                       # Number of times decode resolved a  branch
system.cpu.decode.branchMispred                 32518                       # Number of times decode detected a branch misprediction
system.cpu.decode.decodedInsts               63365947                       # Number of instructions handled by decode
system.cpu.decode.squashedInsts                178126                       # Number of squashed instructions handled by decode
system.cpu.dtb.rdAccesses                     7108154                       # TLB accesses on read requests
system.cpu.dtb.wrAccesses                     4981492                       # TLB accesses on write requests
system.cpu.dtb.rdMisses                           873                       # TLB misses on read requests
system.cpu.dtb.wrMisses                         54662                       # TLB misses on write requests
system.cpu.dtb.walker.power_state.pwrStateResidencyTicks::UNDEFINED  16066925000                       # Cumulative time (in ticks) in various power states
system.cpu.dtb_walker_cache.blocked_cycles::no_mshrs            0                       # number of cycles access was blocked
system.cpu.dtb_walker_cache.blocked_cycles::no_targets            0                       # number of cycles access was blocked
system.cpu.dtb_walker_cache.blocked::no_mshrs            0                       # number of cycles access was blocked
system.cpu.dtb_walker_cache.blocked::no_targets            0                       # number of cycles access was blocked
system.cpu.dtb_walker_cache.avg_blocked_cycles::no_mshrs          nan                       # average number of cycles each access was blocked
system.cpu.dtb_walker_cache.avg_blocked_cycles::no_targets          nan                       # average number of cycles each access was blocked
system.cpu.dtb_walker_cache.replacements            0                       # number of replacements
system.cpu.dtb_walker_cache.power_state.pwrStateResidencyTicks::UNDEFINED  16066925000                       # Cumulative time (in ticks) in various power states
system.cpu.dtb_walker_cache.tags.tagsinuse            0                       # Cycle average of tags in use
system.cpu.dtb_walker_cache.tags.total_refs            0                       # Total number of references to valid blocks.
system.cpu.dtb_walker_cache.tags.sampled_refs            0                       # Sample count of references to valid blocks.
system.cpu.dtb_walker_cache.tags.avg_refs          nan                       # Average number of references to valid blocks.
system.cpu.dtb_walker_cache.tags.warmup_cycle            0                       # Cycle when the warmup percentage was hit.
system.cpu.dtb_walker_cache.tags.tag_accesses            0                       # Number of tag accesses
system.cpu.dtb_walker_cache.tags.data_accesses            0                       # Number of data accesses
system.cpu.dtb_walker_cache.tags.power_state.pwrStateResidencyTicks::UNDEFINED  16066925000                       # Cumulative time (in ticks) in various power states
system.cpu.fetch.icacheStallCycles            6503183                       # Number of cycles fetch is stalled on an Icache miss
system.cpu.fetch.insts                       34824532                       # Number of instructions fetch has processed
system.cpu.fetch.branches                     7299600                       # Number of branches that fetch encountered
system.cpu.fetch.predictedBranches            3138157                       # Number of branches that fetch has predicted taken
system.cpu.fetch.cycles                      25339271                       # Number of cycles fetch has run and was not squashing or blocked
system.cpu.fetch.squashCycles                  406602                       # Number of cycles fetch has spent squashing
system.cpu.fetch.miscStallCycles                  338                       # Number of cycles fetch has spent waiting on interrupts,or bad addresses, or out of MSHRs
system.cpu.fetch.pendingTrapStallCycles          2424                       # Number of stall cycles due to pending traps
system.cpu.fetch.pendingQuiesceStallCycles           12                       # Number of stall cycles due to pending quiesce instructions
system.cpu.fetch.icacheWaitRetryStallCycles           32                       # Number of stall cycles due to full MSHR
system.cpu.fetch.cacheLines                   5158372                       # Number of cache lines fetched
system.cpu.fetch.icacheSquashes                 49117                       # Number of outstanding Icache misses that were squashed
system.cpu.fetch.nisnDist::samples           32048561                       # Number of instructions fetched each cycle (Total)
system.cpu.fetch.nisnDist::mean              2.044946                       # Number of instructions fetched each cycle (Total)
system.cpu.fetch.nisnDist::stdev             3.185344                       # Number of instructions fetched each cycle (Total)
system.cpu.fetch.nisnDist::underflows               0      0.00%      0.00% # Number of instructions fetched each cycle (Total)
system.cpu.fetch.nisnDist::0                 21133257     65.94%     65.94% # Number of instructions fetched each cycle (Total)
system.cpu.fetch.nisnDist::1                   466520      1.46%     67.40% # Number of instructions fetched each cycle (Total)
system.cpu.fetch.nisnDist::2                  1194572      3.73%     71.12% # Number of instructions fetched each cycle (Total)
system.cpu.fetch.nisnDist::3                   952309      2.97%     74.10% # Number of instructions fetched each cycle (Total)
system.cpu.fetch.nisnDist::4                   609642      1.90%     76.00% # Number of instructions fetched each cycle (Total)
system.cpu.fetch.nisnDist::5                   671650      2.10%     78.09% # Number of instructions fetched each cycle (Total)
system.cpu.fetch.nisnDist::6                   784696      2.45%     80.54% # Number of instructions fetched each cycle (Total)
system.cpu.fetch.nisnDist::7                   567319      1.77%     82.31% # Number of instructions fetched each cycle (Total)
system.cpu.fetch.nisnDist::8                  5668596     17.69%    100.00% # Number of instructions fetched each cycle (Total)
system.cpu.fetch.nisnDist::overflows                0      0.00%    100.00% # Number of instructions fetched each cycle (Total)
system.cpu.fetch.nisnDist::min_value                0                       # Number of instructions fetched each cycle (Total)
system.cpu.fetch.nisnDist::max_value                8                       # Number of instructions fetched each cycle (Total)
system.cpu.fetch.nisnDist::total             32048561                       # Number of instructions fetched each cycle (Total)
system.cpu.fetch.branchRate                  0.227162                       # Number of branch fetches per cycle
system.cpu.fetch.rate                        1.083734                       # Number of inst fetches per cycle
system.cpu.icache.demand_hits::.cpu.inst      5108298                       # number of demand (read+write) hits
system.cpu.icache.demand_hits::total          5108298                       # number of demand (read+write) hits
system.cpu.icache.overall_hits::.cpu.inst      5108298                       # number of overall hits
system.cpu.icache.overall_hits::total         5108298                       # number of overall hits
system.cpu.icache.demand_misses::.cpu.inst        50073                       # number of demand (read+write) misses
system.cpu.icache.demand_misses::total          50073                       # number of demand (read+write) misses
system.cpu.icache.overall_misses::.cpu.inst        50073                       # number of overall misses
system.cpu.icache.overall_misses::total         50073                       # number of overall misses
system.cpu.icache.demand_miss_latency::.cpu.inst    758207500                       # number of demand (read+write) miss cycles
system.cpu.icache.demand_miss_latency::total    758207500                       # number of demand (read+write) miss cycles
system.cpu.icache.overall_miss_latency::.cpu.inst    758207500                       # number of overall miss cycles
system.cpu.icache.overall_miss_latency::total    758207500                       # number of overall miss cycles
system.cpu.icache.demand_accesses::.cpu.inst      5158371                       # number of demand (read+write) accesses
system.cpu.icache.demand_accesses::total      5158371                       # number of demand (read+write) accesses
system.cpu.icache.overall_accesses::.cpu.inst      5158371                       # number of overall (read+write) accesses
system.cpu.icache.overall_accesses::total      5158371                       # number of overall (read+write) accesses
system.cpu.icache.demand_miss_rate::.cpu.inst     0.009707                       # miss rate for demand accesses
system.cpu.icache.demand_miss_rate::total     0.009707                       # miss rate for demand accesses
system.cpu.icache.overall_miss_rate::.cpu.inst     0.009707                       # miss rate for overall accesses
system.cpu.icache.overall_miss_rate::total     0.009707                       # miss rate for overall accesses
system.cpu.icache.demand_avg_miss_latency::.cpu.inst 15142.042618                       # average overall miss latency
system.cpu.icache.demand_avg_miss_latency::total 15142.042618                       # average overall miss latency
system.cpu.icache.overall_avg_miss_latency::.cpu.inst 15142.042618                       # average overall miss latency
system.cpu.icache.overall_avg_miss_latency::total 15142.042618                       # average overall miss latency
system.cpu.icache.blocked_cycles::no_mshrs          401                       # number of cycles access was blocked
system.cpu.icache.blocked_cycles::no_targets            0                       # number of cycles access was blocked
system.cpu.icache.blocked::no_mshrs                 9                       # number of cycles access was blocked
system.cpu.icache.blocked::no_targets               0                       # number of cycles access was blocked
system.cpu.icache.avg_blocked_cycles::no_mshrs    44.555556                       # average number of cycles each access was blocked
system.cpu.icache.avg_blocked_cycles::no_targets          nan                       # average number of cycles each access was blocked
system.cpu.icache.writebacks::.writebacks        48903                       # number of writebacks
system.cpu.icache.writebacks::total             48903                       # number of writebacks
system.cpu.icache.demand_mshr_hits::.cpu.inst          662                       # number of demand (read+write) MSHR hits
system.cpu.icache.demand_mshr_hits::total          662                       # number of demand (read+write) MSHR hits
system.cpu.icache.overall_mshr_hits::.cpu.inst          662                       # number of overall MSHR hits
system.cpu.icache.overall_mshr_hits::total          662                       # number of overall MSHR hits
system.cpu.icache.demand_mshr_misses::.cpu.inst        49411                       # number of demand (read+write) MSHR misses
system.cpu.icache.demand_mshr_misses::total        49411                       # number of demand (read+write) MSHR misses
system.cpu.icache.overall_mshr_misses::.cpu.inst        49411                       # number of overall MSHR misses
system.cpu.icache.overall_mshr_misses::total        49411                       # number of overall MSHR misses
system.cpu.icache.demand_mshr_miss_latency::.cpu.inst    674013500                       # number of demand (read+write) MSHR miss cycles
system.cpu.icache.demand_mshr_miss_latency::total    674013500                       # number of demand (read+write) MSHR miss cycles
system.cpu.icache.overall_mshr_miss_latency::.cpu.inst    674013500                       # number of overall MSHR miss cycles
system.cpu.icache.overall_mshr_miss_latency::total    674013500                       # number of overall MSHR miss cycles
system.cpu.icache.demand_mshr_miss_rate::.cpu.inst     0.009579                       # mshr miss rate for demand accesses
system.cpu.icache.demand_mshr_miss_rate::total     0.009579                       # mshr miss rate for demand accesses
system.cpu.icache.overall_mshr_miss_rate::.cpu.inst     0.009579                       # mshr miss rate for overall accesses
system.cpu.icache.overall_mshr_miss_rate::total     0.009579                       # mshr miss rate for overall accesses
system.cpu.icache.demand_avg_mshr_miss_latency::.cpu.inst 13640.960515                       # average overall mshr miss latency
system.cpu.icache.demand_avg_mshr_miss_latency::total 13640.960515                       # average overall mshr miss latency
system.cpu.icache.overall_avg_mshr_miss_latency::.cpu.inst 13640.960515                       # average overall mshr miss latency
system.cpu.icache.overall_avg_mshr_miss_latency::total 13640.960515                       # average overall mshr miss latency
system.cpu.icache.replacements                  48903                       # number of replacements
system.cpu.icache.ReadReq_hits::.cpu.inst      5108298                       # number of ReadReq hits
system.cpu.icache.ReadReq_hits::total         5108298                       # number of ReadReq hits
system.cpu.icache.ReadReq_misses::.cpu.inst        50073                       # number of ReadReq misses
system.cpu.icache.ReadReq_misses::total         50073                       # number of ReadReq misses
system.cpu.icache.ReadReq_miss_latency::.cpu.inst    758207500                       # number of ReadReq miss cycles
system.cpu.icache.ReadReq_miss_latency::total    758207500                       # number of ReadReq miss cycles
system.cpu.icache.ReadReq_accesses::.cpu.inst      5158371                       # number of ReadReq accesses(hits+misses)
system.cpu.icache.ReadReq_accesses::total      5158371                       # number of ReadReq accesses(hits+misses)
system.cpu.icache.ReadReq_miss_rate::.cpu.inst     0.009707                       # miss rate for ReadReq accesses
system.cpu.icache.ReadReq_miss_rate::total     0.009707                       # miss rate for ReadReq accesses
system.cpu.icache.ReadReq_avg_miss_latency::.cpu.inst 15142.042618                       # average ReadReq miss latency
system.cpu.icache.ReadReq_avg_miss_latency::total 15142.042618                       # average ReadReq miss latency
system.cpu.icache.ReadReq_mshr_hits::.cpu.inst          662                       # number of ReadReq MSHR hits
system.cpu.icache.ReadReq_mshr_hits::total          662                       # number of ReadReq MSHR hits
system.cpu.icache.ReadReq_mshr_misses::.cpu.inst        49411                       # number of ReadReq MSHR misses
system.cpu.icache.ReadReq_mshr_misses::total        49411                       # number of ReadReq MSHR misses
system.cpu.icache.ReadReq_mshr_miss_latency::.cpu.inst    674013500                       # number of ReadReq MSHR miss cycles
system.cpu.icache.ReadReq_mshr_miss_latency::total    674013500                       # number of ReadReq MSHR miss cycles
system.cpu.icache.ReadReq_mshr_miss_rate::.cpu.inst     0.009579                       # mshr miss rate for ReadReq accesses
system.cpu.icache.ReadReq_mshr_miss_rate::total     0.009579                       # mshr miss rate for ReadReq accesses
system.cpu.icache.ReadReq_avg_mshr_miss_latency::.cpu.inst 13640.960515                       # average ReadReq mshr miss latency
system.cpu.icache.ReadReq_avg_mshr_miss_latency::total 13640.960515                       # average ReadReq mshr miss latency
system.cpu.icache.power_state.pwrStateResidencyTicks::UNDEFINED  16066925000                       # Cumulative time (in ticks) in various power states
system.cpu.icache.tags.tagsinuse           506.020604                       # Cycle average of tags in use
system.cpu.icache.tags.total_refs             5157709                       # Total number of references to valid blocks.
system.cpu.icache.tags.sampled_refs             49411                       # Sample count of references to valid blocks.
system.cpu.icache.tags.avg_refs            104.383821                       # Average number of references to valid blocks.
system.cpu.icache.tags.warmup_cycle             79500                       # Cycle when the warmup percentage was hit.
system.cpu.icache.tags.occ_blocks::.cpu.inst   506.020604                       # Average occupied blocks per requestor
system.cpu.icache.tags.occ_percent::.cpu.inst     0.988321                       # Average percentage of cache occupancy
system.cpu.icache.tags.occ_percent::total     0.988321                       # Average percentage of cache occupancy
system.cpu.icache.tags.occ_task_id_blocks::1024          507                       # Occupied blocks per task id
system.cpu.icache.tags.age_task_id_blocks_1024::0            2                       # Occupied blocks per task id
system.cpu.icache.tags.age_task_id_blocks_1024::2            3                       # Occupied blocks per task id
system.cpu.icache.tags.age_task_id_blocks_1024::3            3                       # Occupied blocks per task id
system.cpu.icache.tags.age_task_id_blocks_1024::4          499                       # Occupied blocks per task id
system.cpu.icache.tags.occ_task_id_percent::1024     0.990234                       # Percentage of cache occupancy per task id
system.cpu.icache.tags.tag_accesses          10366153                       # Number of tag accesses
system.cpu.icache.tags.data_accesses         10366153                       # Number of data accesses
system.cpu.icache.tags.power_state.pwrStateResidencyTicks::UNDEFINED  16066925000                       # Cumulative time (in ticks) in various power states
system.cpu.interrupts.clk_domain.clock           8000                       # Clock period in ticks
system.cpu.itb.rdAccesses                           0                       # TLB accesses on read requests
system.cpu.itb.wrAccesses                     5158738                       # TLB accesses on write requests
system.cpu.itb.rdMisses                             0                       # TLB misses on read requests
system.cpu.itb.wrMisses                           501                       # TLB misses on write requests
system.cpu.itb.walker.power_state.pwrStateResidencyTicks::UNDEFINED  16066925000                       # Cumulative time (in ticks) in various power states
system.cpu.itb_walker_cache.blocked_cycles::no_mshrs            0                       # number of cycles access was blocked
system.cpu.itb_walker_cache.blocked_cycles::no_targets            0                       # number of cycles access was blocked
system.cpu.itb_walker_cache.blocked::no_mshrs            0                       # number of cycles access was blocked
system.cpu.itb_walker_cache.blocked::no_targets            0                       # number of cycles access was blocked
system.cpu.itb_walker_cache.avg_blocked_cycles::no_mshrs          nan                       # average number of cycles each access was blocked
system.cpu.itb_walker_cache.avg_blocked_cycles::no_targets          nan                       # average number of cycles each access was blocked
system.cpu.itb_walker_cache.replacements            0                       # number of replacements
system.cpu.itb_walker_cache.power_state.pwrStateResidencyTicks::UNDEFINED  16066925000                       # Cumulative time (in ticks) in various power states
system.cpu.itb_walker_cache.tags.tagsinuse            0                       # Cycle average of tags in use
system.cpu.itb_walker_cache.tags.total_refs            0                       # Total number of references to valid blocks.
system.cpu.itb_walker_cache.tags.sampled_refs            0                       # Sample count of references to valid blocks.
system.cpu.itb_walker_cache.tags.avg_refs          nan                       # Average number of references to valid blocks.
system.cpu.itb_walker_cache.tags.warmup_cycle            0                       # Cycle when the warmup percentage was hit.
system.cpu.itb_walker_cache.tags.tag_accesses            0                       # Number of tag accesses
system.cpu.itb_walker_cache.tags.data_accesses            0                       # Number of data accesses
system.cpu.itb_walker_cache.tags.power_state.pwrStateResidencyTicks::UNDEFINED  16066925000                       # Cumulative time (in ticks) in various power states
system.cpu.lsq0.forwLoads                     1425800                       # Number of loads that had data forwarded from stores
system.cpu.lsq0.squashedLoads                  500195                       # Number of loads squashed
system.cpu.lsq0.ignoredResponses                15975                       # Number of memory responses ignored because the instruction is squashed
system.cpu.lsq0.memOrderViolation                 430                       # Number of memory ordering violations
system.cpu.lsq0.squashedStores                 182582                       # Number of stores squashed
system.cpu.lsq0.rescheduledLoads                15953                       # Number of loads that were rescheduled
system.cpu.lsq0.blockedByCache                    294                       # Number of times an access to memory failed due to the cache being blocked
system.cpu.power_state.pwrStateResidencyTicks::ON  16066925000                       # Cumulative time (in ticks) in various power states
system.cpu.rename.squashCycles                 170793                       # Number of cycles rename is squashing
system.cpu.rename.idleCycles                  6334077                       # Number of cycles rename is idle
system.cpu.rename.blockCycles                 4861208                       # Number of cycles rename is blocking
system.cpu.rename.serializeStallCycles           2476                       # count of cycles rename stalledfor serializing inst
system.cpu.rename.runCycles                   9449949                       # Number of cycles rename is running
system.cpu.rename.unblockCycles              11230058                       # Number of cycles rename is unblocking
system.cpu.rename.renamedInsts               62746223                       # Number of instructions processed by rename
system.cpu.rename.ROBFullEvents                 18650                       # Number of times rename has blocked due to ROB full
system.cpu.rename.IQFullEvents                 361703                       # Number of times rename has blocked due to IQ full
system.cpu.rename.LQFullEvents                    354                       # Number of times rename has blocked due to LQ full
system.cpu.rename.SQFullEvents               10727798                       # Number of times rename has blocked due to SQ full
system.cpu.rename.renamedOperands            69764963                       # Number of destination operands rename has renamed
system.cpu.rename.lookups                   165036658                       # Number of register rename lookups that rename has made
system.cpu.rename.intLookups                 97612107                       # Number of integer rename lookups
system.cpu.rename.fpLookups                   1853780                       # Number of floating rename lookups
system.cpu.rename.committedMaps              62586896                       # Number of HB maps that are committed
system.cpu.rename.undoneMaps                  7178035                       # Number of HB maps that are undone due to squashing
system.cpu.rename.serializing                      55                       # count of serializing insts renamed
system.cpu.rename.tempSerializing                  23                       # count of temporary serializing insts renamed
system.cpu.rename.skidInsts                   5059065                       # count of insts added to the skid buffer
system.cpu.rob.reads                         89652401                       # The number of ROB reads
system.cpu.rob.writes                       123176561                       # The number of ROB writes
system.cpu.thread_0.numInsts                 30000004                       # Number of Instructions committed
system.cpu.thread_0.numOps                   56587904                       # Number of Ops committed
system.cpu.thread_0.numMemRefs                      0                       # Number of Memory References
system.cpu_clk_domain.clock                       500                       # Clock period in ticks
system.cpu_voltage_domain.voltage                   1                       # Voltage in Volts
system.l2.demand_hits::.cpu.inst                48050                       # number of demand (read+write) hits
system.l2.demand_hits::.cpu.data                19397                       # number of demand (read+write) hits
system.l2.demand_hits::total                    67447                       # number of demand (read+write) hits
system.l2.overall_hits::.cpu.inst               48050                       # number of overall hits
system.l2.overall_hits::.cpu.data               19397                       # number of overall hits
system.l2.overall_hits::total                   67447                       # number of overall hits
system.l2.demand_misses::.cpu.inst               1360                       # number of demand (read+write) misses
system.l2.demand_misses::.cpu.data             108584                       # number of demand (read+write) misses
system.l2.demand_misses::total                 109944                       # number of demand (read+write) misses
system.l2.overall_misses::.cpu.inst              1360                       # number of overall misses
system.l2.overall_misses::.cpu.data            108584                       # number of overall misses
system.l2.overall_misses::total                109944                       # number of overall misses
system.l2.demand_miss_latency::.cpu.inst     94739000                       # number of demand (read+write) miss cycles
system.l2.demand_miss_latency::.cpu.data   8849154000                       # number of demand (read+write) miss cycles
system.l2.demand_miss_latency::total       8943893000                       # number of demand (read+write) miss cycles
system.l2.overall_miss_latency::.cpu.inst     94739000                       # number of overall miss cycles
system.l2.overall_miss_latency::.cpu.data   8849154000                       # number of overall miss cycles
system.l2.overall_miss_latency::total      8943893000                       # number of overall miss cycles
system.l2.demand_accesses::.cpu.inst            49410                       # number of demand (read+write) accesses
system.l2.demand_accesses::.cpu.data           127981                       # number of demand (read+write) accesses
system.l2.demand_accesses::total               177391                       # number of demand (read+write) accesses
system.l2.overall_accesses::.cpu.inst           49410                       # number of overall (read+write) accesses
system.l2.overall_accesses::.cpu.data          127981                       # number of overall (read+write) accesses
system.l2.overall_accesses::total              177391                       # number of overall (read+write) accesses
system.l2.demand_miss_rate::.cpu.inst        0.027525                       # miss rate for demand accesses
system.l2.demand_miss_rate::.cpu.data        0.848438                       # miss rate for demand accesses
system.l2.demand_miss_rate::total            0.619783                       # miss rate for demand accesses
system.l2.overall_miss_rate::.cpu.inst       0.027525                       # miss rate for overall accesses
system.l2.overall_miss_rate::.cpu.data       0.848438                       # miss rate for overall accesses
system.l2.overall_miss_rate::total           0.619783                       # miss rate for overall accesses
system.l2.demand_avg_miss_latency::.cpu.inst 69661.029412                       # average overall miss latency
system.l2.demand_avg_miss_latency::.cpu.data 81495.929419                       # average overall miss latency
system.l2.demand_avg_miss_latency::total 81349.532489                       # average overall miss latency
[...]
system.mem_ctrls.dram.readBursts               109944                       # Number of DRAM read bursts
system.mem_ctrls.dram.writeBursts               98239                       # Number of DRAM write bursts
system.mem_ctrls.dram.perBankRdBursts::0         6764                       # Per bank write bursts
system.mem_ctrls.dram.perBankRdBursts::1         6688                       # Per bank write bursts
system.mem_ctrls.dram.perBankRdBursts::2         6910                       # Per bank write bursts
system.mem_ctrls.dram.perBankRdBursts::3         6822                       # Per bank write bursts
system.mem_ctrls.dram.perBankRdBursts::4         6929                       # Per bank write bursts
system.mem_ctrls.dram.perBankRdBursts::5         7023                       # Per bank write bursts
system.mem_ctrls.dram.perBankRdBursts::6         6847                       # Per bank write bursts
system.mem_ctrls.dram.perBankRdBursts::7         6837                       # Per bank write bursts
system.mem_ctrls.dram.perBankRdBursts::8         7017                       # Per bank write bursts
system.mem_ctrls.dram.perBankRdBursts::9         6876                       # Per bank write bursts
system.mem_ctrls.dram.perBankRdBursts::10         6805                       # Per bank write bursts
system.mem_ctrls.dram.perBankRdBursts::11         6866                       # Per bank write bursts
system.mem_ctrls.dram.perBankRdBursts::12         6967                       # Per bank write bursts
system.mem_ctrls.dram.perBankRdBursts::13         6963                       # Per bank write bursts
system.mem_ctrls.dram.perBankRdBursts::14         6870                       # Per bank write bursts
system.mem_ctrls.dram.perBankRdBursts::15         6760                       # Per bank write bursts
system.mem_ctrls.dram.perBankWrBursts::0         6088                       # Per bank write bursts
system.mem_ctrls.dram.perBankWrBursts::1         6009                       # Per bank write bursts
system.mem_ctrls.dram.perBankWrBursts::2         6213                       # Per bank write bursts
system.mem_ctrls.dram.perBankWrBursts::3         6089                       # Per bank write bursts
system.mem_ctrls.dram.perBankWrBursts::4         6195                       # Per bank write bursts
system.mem_ctrls.dram.perBankWrBursts::5         6241                       # Per bank write bursts
system.mem_ctrls.dram.perBankWrBursts::6         6078                       # Per bank write bursts
system.mem_ctrls.dram.perBankWrBursts::7         6137                       # Per bank write bursts
system.mem_ctrls.dram.perBankWrBursts::8         6237                       # Per bank write bursts
system.mem_ctrls.dram.perBankWrBursts::9         6078                       # Per bank write bursts
system.mem_ctrls.dram.perBankWrBursts::10         6115                       # Per bank write bursts
system.mem_ctrls.dram.perBankWrBursts::11         6219                       # Per bank write bursts
system.mem_ctrls.dram.perBankWrBursts::12         6155                       # Per bank write bursts
system.mem_ctrls.dram.perBankWrBursts::13         6158                       # Per bank write bursts
system.mem_ctrls.dram.perBankWrBursts::14         6172                       # Per bank write bursts
system.mem_ctrls.dram.perBankWrBursts::15         6055                       # Per bank write bursts
system.mem_ctrls.dram.totQLat              2134771750                       # Total ticks spent queuing
system.mem_ctrls.dram.totBusLat             549720000                       # Total ticks spent in databus transfers
system.mem_ctrls.dram.totMemAccLat         4196221750                       # Total ticks spent from burst creation until serviced by the DRAM
system.mem_ctrls.dram.avgQLat                19416.90                       # Average queueing delay per DRAM burst
system.mem_ctrls.dram.avgBusLat               5000.00                       # Average bus latency per DRAM burst
system.mem_ctrls.dram.avgMemAccLat           38166.90                       # Average memory access latency per DRAM burst
system.mem_ctrls.dram.readRowHits               49339                       # Number of row buffer hits during reads
system.mem_ctrls.dram.writeRowHits              52086                       # Number of row buffer hits during writes
system.mem_ctrls.dram.readRowHitRate            44.88                       # Row buffer hit rate for reads
system.mem_ctrls.dram.writeRowHitRate           53.02                       # Row buffer hit rate for writes
system.mem_ctrls.dram.bytesPerActivate::samples       106745                       # Bytes accessed per row activation
system.mem_ctrls.dram.bytesPerActivate::mean   124.800150                       # Bytes accessed per row activation
system.mem_ctrls.dram.bytesPerActivate::gmean    94.935130                       # Bytes accessed per row activation
system.mem_ctrls.dram.bytesPerActivate::stdev   129.503300                       # Bytes accessed per row activation
system.mem_ctrls.dram.bytesPerActivate::0-127        70487     66.03%     66.03% # Bytes accessed per row activation
system.mem_ctrls.dram.bytesPerActivate::128-255        23281     21.81%     87.84% # Bytes accessed per row activation
system.mem_ctrls.dram.bytesPerActivate::256-383         6000      5.62%     93.46% # Bytes accessed per row activation
system.mem_ctrls.dram.bytesPerActivate::384-511         3221      3.02%     96.48% # Bytes accessed per row activation
system.mem_ctrls.dram.bytesPerActivate::512-639         2079      1.95%     98.43% # Bytes accessed per row activation
system.mem_ctrls.dram.bytesPerActivate::640-767          896      0.84%     99.27% # Bytes accessed per row activation
system.mem_ctrls.dram.bytesPerActivate::768-895          431      0.40%     99.67% # Bytes accessed per row activation
system.mem_ctrls.dram.bytesPerActivate::896-1023          141      0.13%     99.80% # Bytes accessed per row activation
system.mem_ctrls.dram.bytesPerActivate::1024-1151          209      0.20%    100.00% # Bytes accessed per row activation
system.mem_ctrls.dram.bytesPerActivate::total       106745                       # Bytes accessed per row activation
system.mem_ctrls.dram.bytesRead               7036416                       # Total number of bytes read from DRAM
system.mem_ctrls.dram.bytesWritten            6287296                       # Total number of bytes written to DRAM
system.mem_ctrls.dram.avgRdBW              437.944162                       # Average DRAM read bandwidth in MiBytes/s
system.mem_ctrls.dram.avgWrBW              391.319185                       # Average DRAM write bandwidth in MiBytes/s
system.mem_ctrls.dram.peakBW                 12800.00                       # Theoretical peak bandwidth in MiByte/s
system.mem_ctrls.dram.busUtil                    6.48                       # Data bus utilization in percentage
system.mem_ctrls.dram.busUtilRead                3.42                       # Data bus utilization in percentage for reads
system.mem_ctrls.dram.busUtilWrite               3.06                       # Data bus utilization in percentage for writes
system.mem_ctrls.dram.pageHitRate               48.72                       # Row buffer hit rate, read and write combined
system.mem_ctrls.dram.power_state.pwrStateResidencyTicks::UNDEFINED  16066925000                       # Cumulative time (in ticks) in various power states
system.mem_ctrls.dram.rank0.actEnergy       381397380                       # Energy for activate commands per rank (pJ)
system.mem_ctrls.dram.rank0.preEnergy       202690950                       # Energy for precharge commands per rank (pJ)
system.mem_ctrls.dram.rank0.readEnergy      391414800                       # Energy for read commands per rank (pJ)
system.mem_ctrls.dram.rank0.writeEnergy     256041000                       # Energy for write commands per rank (pJ)
system.mem_ctrls.dram.rank0.refreshEnergy 1268002320.000000                       # Energy for refresh commands per rank (pJ)
system.mem_ctrls.dram.rank0.actBackEnergy   7088449890                       # Energy for active background per rank (pJ)
system.mem_ctrls.dram.rank0.preBackEnergy    200478240                       # Energy for precharge background per rank (pJ)
system.mem_ctrls.dram.rank0.actPowerDownEnergy            0                       # Energy for active power-down per rank (pJ)
system.mem_ctrls.dram.rank0.prePowerDownEnergy            0                       # Energy for precharge power-down per rank (pJ)
system.mem_ctrls.dram.rank0.selfRefreshEnergy            0                       # Energy for self refresh per rank (pJ)
system.mem_ctrls.dram.rank0.totalEnergy    9788474580                       # Total energy per rank (pJ)
system.mem_ctrls.dram.rank0.averagePower   609.231361                       # Core power per rank (mW)
system.mem_ctrls.dram.rank0.totalIdleTime            0                       # Total Idle time Per DRAM Rank
system.mem_ctrls.dram.rank0.pwrStateTime::IDLE    462940000                       # Time in different power states
system.mem_ctrls.dram.rank0.pwrStateTime::REF    536380000                       # Time in different power states
system.mem_ctrls.dram.rank0.pwrStateTime::SREF            0                       # Time in different power states
system.mem_ctrls.dram.rank0.pwrStateTime::PRE_PDN            0                       # Time in different power states
system.mem_ctrls.dram.rank0.pwrStateTime::ACT  15067605000                       # Time in different power states
system.mem_ctrls.dram.rank0.pwrStateTime::ACT_PDN            0                       # Time in different power states
system.mem_ctrls.dram.rank1.actEnergy       380854740                       # Energy for activate commands per rank (pJ)
system.mem_ctrls.dram.rank1.preEnergy       202406325                       # Energy for precharge commands per rank (pJ)
system.mem_ctrls.dram.rank1.readEnergy      393585360                       # Energy for read commands per rank (pJ)
system.mem_ctrls.dram.rank1.writeEnergy     256766580                       # Energy for write commands per rank (pJ)
system.mem_ctrls.dram.rank1.refreshEnergy 1268002320.000000                       # Energy for refresh commands per rank (pJ)
system.mem_ctrls.dram.rank1.actBackEnergy   7080819870                       # Energy for active background per rank (pJ)
system.mem_ctrls.dram.rank1.preBackEnergy    206903520                       # Energy for precharge background per rank (pJ)
system.mem_ctrls.dram.rank1.actPowerDownEnergy            0                       # Energy for active power-down per rank (pJ)
system.mem_ctrls.dram.rank1.prePowerDownEnergy            0                       # Energy for precharge power-down per rank (pJ)
system.mem_ctrls.dram.rank1.selfRefreshEnergy            0                       # Energy for self refresh per rank (pJ)
system.mem_ctrls.dram.rank1.totalEnergy    9789338715                       # Total energy per rank (pJ)
system.mem_ctrls.dram.rank1.averagePower   609.285144                       # Core power per rank (mW)
system.mem_ctrls.dram.rank1.totalIdleTime            0                       # Total Idle time Per DRAM Rank
system.mem_ctrls.dram.rank1.pwrStateTime::IDLE    479187750                       # Time in different power states
system.mem_ctrls.dram.rank1.pwrStateTime::REF    536380000                       # Time in different power states
system.mem_ctrls.dram.rank1.pwrStateTime::SREF            0                       # Time in different power states
system.mem_ctrls.dram.rank1.pwrStateTime::PRE_PDN            0                       # Time in different power states
system.mem_ctrls.dram.rank1.pwrStateTime::ACT  15051357250                       # Time in different power states
system.mem_ctrls.dram.rank1.pwrStateTime::ACT_PDN            0                       # Time in different power states
system.mem_ctrls.power_state.pwrStateResidencyTicks::UNDEFINED  16066925000                       # Cumulative time (in ticks) in various power states
system.membus.trans_dist::ReadResp              23699                       # Transaction distribution
system.membus.trans_dist::WritebackDirty        98257                       # Transaction distribution
system.membus.trans_dist::CleanEvict             2961                       # Transaction distribution
system.membus.trans_dist::ReadExReq             86245                       # Transaction distribution
system.membus.trans_dist::ReadExResp            86245                       # Transaction distribution
system.membus.trans_dist::ReadSharedReq         23699                       # Transaction distribution
system.membus.pkt_count_system.l2.mem_side_port::system.mem_ctrls.port       321106                       # Packet count per connected requestor and responder (bytes)
system.membus.pkt_count_system.l2.mem_side_port::total       321106                       # Packet count per connected requestor and responder (bytes)
system.membus.pkt_count::total                 321106                       # Packet count per connected requestor and responder (bytes)
system.membus.pkt_size_system.l2.mem_side_port::system.mem_ctrls.port     13324864                       # Cumulative packet size per connected requestor and responder (bytes)
system.membus.pkt_size_system.l2.mem_side_port::total     13324864                       # Cumulative packet size per connected requestor and responder (bytes)
system.membus.pkt_size::total                13324864                       # Cumulative packet size per connected requestor and responder (bytes)
system.membus.snoops                                0                       # Total snoops (count)
system.membus.snoopTraffic                          0                       # Total snoop traffic (bytes)
system.membus.snoop_fanout::samples            109944                       # Request fanout histogram
system.membus.snoop_fanout::mean                    0                       # Request fanout histogram
system.membus.snoop_fanout::stdev                   0                       # Request fanout histogram
system.membus.snoop_fanout::underflows              0      0.00%      0.00% # Request fanout histogram
system.membus.snoop_fanout::0                  109944    100.00%    100.00% # Request fanout histogram
system.membus.snoop_fanout::1                       0      0.00%    100.00% # Request fanout histogram
system.membus.snoop_fanout::overflows               0      0.00%    100.00% # Request fanout histogram
system.membus.snoop_fanout::min_value               0                       # Request fanout histogram
system.membus.snoop_fanout::max_value               0                       # Request fanout histogram
system.membus.snoop_fanout::total              109944                       # Request fanout histogram
system.membus.power_state.pwrStateResidencyTicks::UNDEFINED  16066925000                       # Cumulative time (in ticks) in various power states
system.membus.reqLayer2.occupancy           151047500                       # Layer occupancy (ticks)
system.membus.reqLayer2.utilization               0.9                       # Layer utilization (%)
system.membus.respLayer1.occupancy          137430000                       # Layer occupancy (ticks)
system.membus.respLayer1.utilization              0.9                       # Layer utilization (%)
system.tol2bus.trans_dist::ReadResp             80985                       # Transaction distribution
system.tol2bus.trans_dist::WritebackDirty       219338                       # Transaction distribution
system.tol2bus.trans_dist::WritebackClean        48903                       # Transaction distribution
system.tol2bus.trans_dist::CleanEvict           10037                       # Transaction distribution
system.tol2bus.trans_dist::UpgradeReq               1                       # Transaction distribution
system.tol2bus.trans_dist::UpgradeResp              1                       # Transaction distribution
system.tol2bus.trans_dist::ReadExReq            96407                       # Transaction distribution
system.tol2bus.trans_dist::ReadExResp           96407                       # Transaction distribution
system.tol2bus.trans_dist::ReadCleanReq         49411                       # Transaction distribution
system.tol2bus.trans_dist::ReadSharedReq        31574                       # Transaction distribution
system.tol2bus.pkt_count_system.cpu.icache.mem_side_port::system.l2.cpu_side_port       147724                       # Packet count per connected requestor and responder (bytes)
system.tol2bus.pkt_count_system.cpu.dcache.mem_side_port::system.l2.cpu_side_port       383433                       # Packet count per connected requestor and responder (bytes)
system.tol2bus.pkt_count::total                531157                       # Packet count per connected requestor and responder (bytes)
system.tol2bus.pkt_size_system.cpu.icache.mem_side_port::system.l2.cpu_side_port      6292032                       # Cumulative packet size per connected requestor and responder (bytes)
system.tol2bus.pkt_size_system.cpu.dcache.mem_side_port::system.l2.cpu_side_port     15939968                       # Cumulative packet size per connected requestor and responder (bytes)
system.tol2bus.pkt_size::total               22232000                       # Cumulative packet size per connected requestor and responder (bytes)
system.tol2bus.snoops                          101907                       # Total snoops (count)
system.tol2bus.snoopTraffic                   6288512                       # Total snoop traffic (bytes)
system.tol2bus.snoop_fanout::samples           279299                       # Request fanout histogram
system.tol2bus.snoop_fanout::mean            0.002624                       # Request fanout histogram
system.tol2bus.snoop_fanout::stdev           0.051580                       # Request fanout histogram
system.tol2bus.snoop_fanout::underflows             0      0.00%      0.00% # Request fanout histogram
system.tol2bus.snoop_fanout::0                 278572     99.74%     99.74% # Request fanout histogram
system.tol2bus.snoop_fanout::1                    721      0.26%    100.00% # Request fanout histogram
system.tol2bus.snoop_fanout::2                      6      0.00%    100.00% # Request fanout histogram
system.tol2bus.snoop_fanout::3                      0      0.00%    100.00% # Request fanout histogram
system.tol2bus.snoop_fanout::4                      0      0.00%    100.00% # Request fanout histogram
system.tol2bus.snoop_fanout::overflows              0      0.00%    100.00% # Request fanout histogram
system.tol2bus.snoop_fanout::min_value              0                       # Request fanout histogram
system.tol2bus.snoop_fanout::max_value              2                       # Request fanout histogram
system.tol2bus.snoop_fanout::total             279299                       # Request fanout histogram
system.tol2bus.power_state.pwrStateResidencyTicks::UNDEFINED  16066925000                       # Cumulative time (in ticks) in various power states
system.tol2bus.reqLayer0.occupancy          346866500                       # Layer occupancy (ticks)
system.tol2bus.reqLayer0.utilization              2.2                       # Layer utilization (%)
system.tol2bus.respLayer0.occupancy          74116999                       # Layer occupancy (ticks)
system.tol2bus.respLayer0.utilization             0.5                       # Layer utilization (%)
system.tol2bus.respLayer1.occupancy         191972000                       # Layer occupancy (ticks)
system.tol2bus.respLayer1.utilization             1.2                       # Layer utilization (%)
system.voltage_domain.voltage                       1                       # Voltage in Volts

---------- End Simulation Statistics   ----------
