Global frequency set at 1000000000000 ticks per second
Redirecting stdout to /data/home/rwa116/Project/CMPT750-Proj-Benchmark/results/100M/X86/spec2017/600.perlbench_s/DerivO3CPU/LTAGE/simout
Redirecting stderr to /data/home/rwa116/Project/CMPT750-Proj-Benchmark/results/100M/X86/spec2017/600.perlbench_s/DerivO3CPU/LTAGE/simerr
gem5 Simulator System.  http://gem5.org
gem5 is copyrighted software; use the --copyright option for details.

gem5 version 20.1.0.2
gem5 compiled Nov 12 2023 22:10:15
gem5 started Nov 16 2023 06:32:48
gem5 executing on ARCH-750, pid 712586
command line: /data/home/rwa116/Project/CMPT750-Proj/build/X86/gem5.opt -re --outdir=/data/home/rwa116/Project/CMPT750-Proj-Benchmark/results/100M/X86/spec2017/600.perlbench_s/DerivO3CPU/LTAGE /data/home/rwa116/Project/CMPT750-Proj/configs/example/se.py --cpu-type=DerivO3CPU --caches --l2cache --l1d_size=32kB --l1i_size=32kB --l2_size=512kB --bp-type=LTAGE --cmd=/data/home/rwa116/Project/spec/benchspec/CPU/600.perlbench_s/build/build_base_mytest-m64.0000/perlbench_s '--options=-I./lib checkspam.pl 2500 5 25 11 150 1 1 1 1 > checkspam.2500.5.25.11.150.1.1.1.1.out 2>> checkspam.2500.5.25.11.150.1.1.1.1.err' --sys-clock=4GHz --warmup-insts=1000000 --maxinsts=100000000

info: Standard input is not a terminal, disabling listeners.
**** REAL SIMULATION ****
Exiting @ tick 80474423500 because a thread reached the max instruction count
