
---------- Begin Simulation Statistics ----------
final_tick                                 5337408500                       # Number of ticks from beginning of simulation (restored from checkpoints and never reset)
host_inst_rate                                  74057                       # Simulator instruction rate (inst/s)
host_mem_usage                                 675128                       # Number of bytes of host memory used
host_op_rate                                   139576                       # Simulator op (including micro ops) rate (op/s)
host_seconds                                   135.03                       # Real time elapsed on the host
host_tick_rate                               39527147                       # Simulator tick rate (ticks/s)
sim_freq                                 1000000000000                       # Frequency of simulated ticks
sim_insts                                    10000001                       # Number of instructions simulated
sim_ops                                      18847133                       # Number of ops (including micro ops) simulated
sim_seconds                                  0.005337                       # Number of seconds simulated
sim_ticks                                  5337408500                       # Number of ticks simulated
system.cpu.cc_regfile_reads                  12053747                       # number of cc regfile reads
system.cpu.cc_regfile_writes                  5804221                       # number of cc regfile writes
system.cpu.committedInsts                    10000001                       # Number of Instructions Simulated
system.cpu.committedOps                      18847133                       # Number of Ops (including micro ops) Simulated
system.cpu.cpi                               1.067482                       # CPI: Cycles Per Instruction
system.cpu.cpi_total                         1.067482                       # CPI: Total CPI of All Threads
system.cpu.fp_regfile_reads                    529473                       # number of floating regfile reads
system.cpu.fp_regfile_writes                   290729                       # number of floating regfile writes
system.cpu.idleCycles                           85943                       # Total number of cycles that the CPU has spent unscheduled due to idling
system.cpu.iew.branchMispredicts                56279                       # Number of branch mispredicts detected at execute
system.cpu.iew.exec_branches                  2175954                       # Number of branches executed
system.cpu.iew.exec_nop                             0                       # number of nop insts executed
system.cpu.iew.exec_rate                     1.855787                       # Inst execution rate
system.cpu.iew.exec_refs                      4040122                       # number of memory reference insts executed
system.cpu.iew.exec_stores                    1659325                       # Number of stores executed
system.cpu.iew.exec_swp                             0                       # number of swp insts executed
system.cpu.iew.iewBlockCycles                  857092                       # Number of cycles IEW is blocking
system.cpu.iew.iewDispLoadInsts               2409478                       # Number of dispatched load instructions
system.cpu.iew.iewDispNonSpecInsts                 68                       # Number of dispatched non-speculative instructions
system.cpu.iew.iewDispSquashedInsts              1691                       # Number of squashed instructions skipped by dispatch
system.cpu.iew.iewDispStoreInsts              1685284                       # Number of dispatched store instructions
system.cpu.iew.iewDispatchedInsts            20270403                       # Number of instructions dispatched to IQ
system.cpu.iew.iewExecLoadInsts               2380797                       # Number of load instructions executed
system.cpu.iew.iewExecSquashedInsts             96088                       # Number of squashed instructions skipped in execute
system.cpu.iew.iewExecutedInsts              19810193                       # Number of executed instructions
system.cpu.iew.iewIQFullEvents                   7309                       # Number of times the IQ has become full, causing a stall
system.cpu.iew.iewIdleCycles                        0                       # Number of cycles IEW is idle
system.cpu.iew.iewLSQFullEvents                703825                       # Number of times the LSQ has become full, causing a stall
system.cpu.iew.iewSquashCycles                  48366                       # Number of cycles IEW is squashing
system.cpu.iew.iewUnblockCycles                717864                       # Number of cycles IEW is unblocking
system.cpu.iew.memOrderViolationEvents            190                       # Number of memory order violations
system.cpu.iew.predictedNotTakenIncorrect        42349                       # Number of branches that were predicted not taken incorrectly
system.cpu.iew.predictedTakenIncorrect          13930                       # Number of branches that were predicted taken incorrectly
system.cpu.iew.wb_consumers                  22438546                       # num instructions consuming a value
system.cpu.iew.wb_count                      19753582                       # cumulative count of insts written-back
system.cpu.iew.wb_fanout                     0.608885                       # average fanout of values written-back
system.cpu.iew.wb_producers                  13662500                       # num instructions producing a value
system.cpu.iew.wb_rate                       1.850484                       # insts written-back per cycle
system.cpu.iew.wb_sent                       19776083                       # cumulative count of insts sent to commit
system.cpu.int_regfile_reads                 30748203                       # number of integer regfile reads
system.cpu.int_regfile_writes                15797781                       # number of integer regfile writes
system.cpu.ipc                               0.936784                       # IPC: Instructions Per Cycle
system.cpu.ipc_total                         0.936784                       # IPC: Total IPC of All Threads
system.cpu.iq.FU_type_0::No_OpClass            199664      1.00%      1.00% # Type of FU issued
system.cpu.iq.FU_type_0::IntAlu              15225792     76.49%     77.49% # Type of FU issued
system.cpu.iq.FU_type_0::IntMult                85868      0.43%     77.92% # Type of FU issued
system.cpu.iq.FU_type_0::IntDiv                116758      0.59%     78.51% # Type of FU issued
system.cpu.iq.FU_type_0::FloatAdd               42754      0.21%     78.72% # Type of FU issued
system.cpu.iq.FU_type_0::FloatCmp                   0      0.00%     78.72% # Type of FU issued
system.cpu.iq.FU_type_0::FloatCvt                  32      0.00%     78.72% # Type of FU issued
system.cpu.iq.FU_type_0::FloatMult                  0      0.00%     78.72% # Type of FU issued
system.cpu.iq.FU_type_0::FloatMultAcc               0      0.00%     78.72% # Type of FU issued
system.cpu.iq.FU_type_0::FloatDiv                   0      0.00%     78.72% # Type of FU issued
system.cpu.iq.FU_type_0::FloatMisc                  0      0.00%     78.72% # Type of FU issued
system.cpu.iq.FU_type_0::FloatSqrt                  0      0.00%     78.72% # Type of FU issued
system.cpu.iq.FU_type_0::SimdAdd                  453      0.00%     78.73% # Type of FU issued
system.cpu.iq.FU_type_0::SimdAddAcc                 0      0.00%     78.73% # Type of FU issued
system.cpu.iq.FU_type_0::SimdAlu                22654      0.11%     78.84% # Type of FU issued
system.cpu.iq.FU_type_0::SimdCmp                   20      0.00%     78.84% # Type of FU issued
system.cpu.iq.FU_type_0::SimdCvt                33320      0.17%     79.01% # Type of FU issued
system.cpu.iq.FU_type_0::SimdMisc              121650      0.61%     79.62% # Type of FU issued
system.cpu.iq.FU_type_0::SimdMult                   0      0.00%     79.62% # Type of FU issued
system.cpu.iq.FU_type_0::SimdMultAcc                0      0.00%     79.62% # Type of FU issued
system.cpu.iq.FU_type_0::SimdShift                296      0.00%     79.62% # Type of FU issued
system.cpu.iq.FU_type_0::SimdShiftAcc               0      0.00%     79.62% # Type of FU issued
system.cpu.iq.FU_type_0::SimdDiv                    0      0.00%     79.62% # Type of FU issued
system.cpu.iq.FU_type_0::SimdSqrt                   0      0.00%     79.62% # Type of FU issued
system.cpu.iq.FU_type_0::SimdFloatAdd               0      0.00%     79.62% # Type of FU issued
system.cpu.iq.FU_type_0::SimdFloatAlu               0      0.00%     79.62% # Type of FU issued
system.cpu.iq.FU_type_0::SimdFloatCmp               0      0.00%     79.62% # Type of FU issued
system.cpu.iq.FU_type_0::SimdFloatCvt               4      0.00%     79.62% # Type of FU issued
system.cpu.iq.FU_type_0::SimdFloatDiv               0      0.00%     79.62% # Type of FU issued
system.cpu.iq.FU_type_0::SimdFloatMisc              0      0.00%     79.62% # Type of FU issued
system.cpu.iq.FU_type_0::SimdFloatMult              2      0.00%     79.62% # Type of FU issued
system.cpu.iq.FU_type_0::SimdFloatMultAcc            0      0.00%     79.62% # Type of FU issued
system.cpu.iq.FU_type_0::SimdFloatSqrt              0      0.00%     79.62% # Type of FU issued
system.cpu.iq.FU_type_0::SimdReduceAdd              0      0.00%     79.62% # Type of FU issued
system.cpu.iq.FU_type_0::SimdReduceAlu              0      0.00%     79.62% # Type of FU issued
system.cpu.iq.FU_type_0::SimdReduceCmp              0      0.00%     79.62% # Type of FU issued
system.cpu.iq.FU_type_0::SimdFloatReduceAdd            0      0.00%     79.62% # Type of FU issued
system.cpu.iq.FU_type_0::SimdFloatReduceCmp            0      0.00%     79.62% # Type of FU issued
system.cpu.iq.FU_type_0::SimdAes                    0      0.00%     79.62% # Type of FU issued
system.cpu.iq.FU_type_0::SimdAesMix                 0      0.00%     79.62% # Type of FU issued
system.cpu.iq.FU_type_0::SimdSha1Hash               0      0.00%     79.62% # Type of FU issued
system.cpu.iq.FU_type_0::SimdSha1Hash2              0      0.00%     79.62% # Type of FU issued
system.cpu.iq.FU_type_0::SimdSha256Hash             0      0.00%     79.62% # Type of FU issued
system.cpu.iq.FU_type_0::SimdSha256Hash2            0      0.00%     79.62% # Type of FU issued
system.cpu.iq.FU_type_0::SimdShaSigma2              0      0.00%     79.62% # Type of FU issued
system.cpu.iq.FU_type_0::SimdShaSigma3              0      0.00%     79.62% # Type of FU issued
system.cpu.iq.FU_type_0::SimdPredAlu                0      0.00%     79.62% # Type of FU issued
system.cpu.iq.FU_type_0::MemRead              2303366     11.57%     91.19% # Type of FU issued
system.cpu.iq.FU_type_0::MemWrite             1514017      7.61%     98.80% # Type of FU issued
system.cpu.iq.FU_type_0::FloatMemRead           90306      0.45%     99.25% # Type of FU issued
system.cpu.iq.FU_type_0::FloatMemWrite         149326      0.75%    100.00% # Type of FU issued
system.cpu.iq.FU_type_0::IprAccess                  0      0.00%    100.00% # Type of FU issued
system.cpu.iq.FU_type_0::InstPrefetch               0      0.00%    100.00% # Type of FU issued
system.cpu.iq.FU_type_0::total               19906282                       # Type of FU issued
system.cpu.iq.fp_alu_accesses                  499352                       # Number of floating point alu accesses
system.cpu.iq.fp_inst_queue_reads              987147                       # Number of floating instruction queue reads
system.cpu.iq.fp_inst_queue_wakeup_accesses       470066                       # Number of floating instruction queue wakeup accesses
system.cpu.iq.fp_inst_queue_writes             600549                       # Number of floating instruction queue writes
system.cpu.iq.fu_busy_cnt                      290899                       # FU busy when requested
system.cpu.iq.fu_busy_rate                   0.014613                       # FU busy rate (busy events/executed inst)
system.cpu.iq.fu_full::No_OpClass                   0      0.00%      0.00% # attempts to use FU when none available
system.cpu.iq.fu_full::IntAlu                  240458     82.66%     82.66% # attempts to use FU when none available
system.cpu.iq.fu_full::IntMult                      0      0.00%     82.66% # attempts to use FU when none available
system.cpu.iq.fu_full::IntDiv                       0      0.00%     82.66% # attempts to use FU when none available
system.cpu.iq.fu_full::FloatAdd                     0      0.00%     82.66% # attempts to use FU when none available
system.cpu.iq.fu_full::FloatCmp                     0      0.00%     82.66% # attempts to use FU when none available
system.cpu.iq.fu_full::FloatCvt                     0      0.00%     82.66% # attempts to use FU when none available
system.cpu.iq.fu_full::FloatMult                    0      0.00%     82.66% # attempts to use FU when none available
system.cpu.iq.fu_full::FloatMultAcc                 0      0.00%     82.66% # attempts to use FU when none available
system.cpu.iq.fu_full::FloatDiv                     0      0.00%     82.66% # attempts to use FU when none available
system.cpu.iq.fu_full::FloatMisc                    0      0.00%     82.66% # attempts to use FU when none available
system.cpu.iq.fu_full::FloatSqrt                    0      0.00%     82.66% # attempts to use FU when none available
system.cpu.iq.fu_full::SimdAdd                      0      0.00%     82.66% # attempts to use FU when none available
system.cpu.iq.fu_full::SimdAddAcc                   0      0.00%     82.66% # attempts to use FU when none available
system.cpu.iq.fu_full::SimdAlu                     17      0.01%     82.67% # attempts to use FU when none available
system.cpu.iq.fu_full::SimdCmp                      2      0.00%     82.67% # attempts to use FU when none available
system.cpu.iq.fu_full::SimdCvt                    753      0.26%     82.93% # attempts to use FU when none available
system.cpu.iq.fu_full::SimdMisc                   315      0.11%     83.03% # attempts to use FU when none available
system.cpu.iq.fu_full::SimdMult                     0      0.00%     83.03% # attempts to use FU when none available
system.cpu.iq.fu_full::SimdMultAcc                  0      0.00%     83.03% # attempts to use FU when none available
system.cpu.iq.fu_full::SimdShift                    3      0.00%     83.04% # attempts to use FU when none available
system.cpu.iq.fu_full::SimdShiftAcc                 0      0.00%     83.04% # attempts to use FU when none available
system.cpu.iq.fu_full::SimdDiv                      0      0.00%     83.04% # attempts to use FU when none available
system.cpu.iq.fu_full::SimdSqrt                     0      0.00%     83.04% # attempts to use FU when none available
system.cpu.iq.fu_full::SimdFloatAdd                 0      0.00%     83.04% # attempts to use FU when none available
system.cpu.iq.fu_full::SimdFloatAlu                 0      0.00%     83.04% # attempts to use FU when none available
system.cpu.iq.fu_full::SimdFloatCmp                 0      0.00%     83.04% # attempts to use FU when none available
system.cpu.iq.fu_full::SimdFloatCvt                 0      0.00%     83.04% # attempts to use FU when none available
system.cpu.iq.fu_full::SimdFloatDiv                 0      0.00%     83.04% # attempts to use FU when none available
system.cpu.iq.fu_full::SimdFloatMisc                0      0.00%     83.04% # attempts to use FU when none available
system.cpu.iq.fu_full::SimdFloatMult                0      0.00%     83.04% # attempts to use FU when none available
system.cpu.iq.fu_full::SimdFloatMultAcc             0      0.00%     83.04% # attempts to use FU when none available
system.cpu.iq.fu_full::SimdFloatSqrt                0      0.00%     83.04% # attempts to use FU when none available
system.cpu.iq.fu_full::SimdReduceAdd                0      0.00%     83.04% # attempts to use FU when none available
system.cpu.iq.fu_full::SimdReduceAlu                0      0.00%     83.04% # attempts to use FU when none available
system.cpu.iq.fu_full::SimdReduceCmp                0      0.00%     83.04% # attempts to use FU when none available
system.cpu.iq.fu_full::SimdFloatReduceAdd            0      0.00%     83.04% # attempts to use FU when none available
system.cpu.iq.fu_full::SimdFloatReduceCmp            0      0.00%     83.04% # attempts to use FU when none available
system.cpu.iq.fu_full::SimdAes                      0      0.00%     83.04% # attempts to use FU when none available
system.cpu.iq.fu_full::SimdAesMix                   0      0.00%     83.04% # attempts to use FU when none available
system.cpu.iq.fu_full::SimdSha1Hash                 0      0.00%     83.04% # attempts to use FU when none available
system.cpu.iq.fu_full::SimdSha1Hash2                0      0.00%     83.04% # attempts to use FU when none available
system.cpu.iq.fu_full::SimdSha256Hash               0      0.00%     83.04% # attempts to use FU when none available
system.cpu.iq.fu_full::SimdSha256Hash2              0      0.00%     83.04% # attempts to use FU when none available
system.cpu.iq.fu_full::SimdShaSigma2                0      0.00%     83.04% # attempts to use FU when none available
system.cpu.iq.fu_full::SimdShaSigma3                0      0.00%     83.04% # attempts to use FU when none available
system.cpu.iq.fu_full::SimdPredAlu                  0      0.00%     83.04% # attempts to use FU when none available
system.cpu.iq.fu_full::MemRead                  22503      7.74%     90.77% # attempts to use FU when none available
system.cpu.iq.fu_full::MemWrite                 16099      5.53%     96.30% # attempts to use FU when none available
system.cpu.iq.fu_full::FloatMemRead               300      0.10%     96.41% # attempts to use FU when none available
system.cpu.iq.fu_full::FloatMemWrite            10449      3.59%    100.00% # attempts to use FU when none available
system.cpu.iq.fu_full::IprAccess                    0      0.00%    100.00% # attempts to use FU when none available
system.cpu.iq.fu_full::InstPrefetch                 0      0.00%    100.00% # attempts to use FU when none available
system.cpu.iq.int_alu_accesses               19498165                       # Number of integer alu accesses
system.cpu.iq.int_inst_queue_reads           49713064                       # Number of integer instruction queue reads
system.cpu.iq.int_inst_queue_wakeup_accesses     19283516                       # Number of integer instruction queue wakeup accesses
system.cpu.iq.int_inst_queue_writes          21093296                       # Number of integer instruction queue writes
system.cpu.iq.iqInstsAdded                   20270239                       # Number of instructions added to the IQ (excludes non-spec)
system.cpu.iq.iqInstsIssued                  19906282                       # Number of instructions issued
system.cpu.iq.iqNonSpecInstsAdded                 164                       # Number of non-speculative instructions added to the IQ
system.cpu.iq.iqSquashedInstsExamined         1423258                       # Number of squashed instructions iterated over during squash; mainly for profiling
system.cpu.iq.iqSquashedInstsIssued              7874                       # Number of squashed instructions issued
system.cpu.iq.iqSquashedNonSpecRemoved             98                       # Number of squashed non-spec instructions that were removed
system.cpu.iq.iqSquashedOperandsExamined      1703175                       # Number of squashed operands that are examined and possibly removed from graph
system.cpu.iq.issued_per_cycle::samples      10588875                       # Number of insts issued each cycle
system.cpu.iq.issued_per_cycle::mean         1.879924                       # Number of insts issued each cycle
system.cpu.iq.issued_per_cycle::stdev        2.369583                       # Number of insts issued each cycle
system.cpu.iq.issued_per_cycle::underflows            0      0.00%      0.00% # Number of insts issued each cycle
system.cpu.iq.issued_per_cycle::0             5339432     50.42%     50.42% # Number of insts issued each cycle
system.cpu.iq.issued_per_cycle::1              774506      7.31%     57.74% # Number of insts issued each cycle
system.cpu.iq.issued_per_cycle::2              896141      8.46%     66.20% # Number of insts issued each cycle
system.cpu.iq.issued_per_cycle::3              921560      8.70%     74.91% # Number of insts issued each cycle
system.cpu.iq.issued_per_cycle::4              782387      7.39%     82.29% # Number of insts issued each cycle
system.cpu.iq.issued_per_cycle::5              613963      5.80%     88.09% # Number of insts issued each cycle
system.cpu.iq.issued_per_cycle::6              667752      6.31%     94.40% # Number of insts issued each cycle
system.cpu.iq.issued_per_cycle::7              376133      3.55%     97.95% # Number of insts issued each cycle
system.cpu.iq.issued_per_cycle::8              217001      2.05%    100.00% # Number of insts issued each cycle
system.cpu.iq.issued_per_cycle::overflows            0      0.00%    100.00% # Number of insts issued each cycle
system.cpu.iq.issued_per_cycle::min_value            0                       # Number of insts issued each cycle
system.cpu.iq.issued_per_cycle::max_value            8                       # Number of insts issued each cycle
system.cpu.iq.issued_per_cycle::total        10588875                       # Number of insts issued each cycle
system.cpu.iq.rate                           1.864789                       # Inst issue rate
system.cpu.iq.vec_alu_accesses                      0                       # Number of vector alu accesses
system.cpu.iq.vec_inst_queue_reads                  0                       # Number of vector instruction queue reads
system.cpu.iq.vec_inst_queue_wakeup_accesses            0                       # Number of vector instruction queue wakeup accesses
system.cpu.iq.vec_inst_queue_writes                 0                       # Number of vector instruction queue writes
system.cpu.memDep0.conflictingLoads             73587                       # Number of conflicting loads.
system.cpu.memDep0.conflictingStores            14649                       # Number of conflicting stores.
system.cpu.memDep0.insertedLoads              2409478                       # Number of loads inserted to the mem dependence unit.
system.cpu.memDep0.insertedStores             1685284                       # Number of stores inserted to the mem dependence unit.
system.cpu.misc_regfile_reads                 8362213                       # number of misc regfile reads
system.cpu.misc_regfile_writes                     18                       # number of misc regfile writes
system.cpu.numCycles                         10674818                       # number of cpu cycles simulated
system.cpu.numWorkItemsCompleted                    0                       # number of work items this cpu completed
system.cpu.numWorkItemsStarted                      0                       # number of work items this cpu started
system.cpu.timesIdled                             907                       # Number of times that the entire CPU went into an idle state and unscheduled itself
system.cpu.workload.numSyscalls                    54                       # Number of system calls
system.membus.snoop_filter.hit_multi_requests            0                       # Number of requests hitting in the snoop filter with multiple (>1) holders of the requested data.
system.membus.snoop_filter.hit_multi_snoops            0                       # Number of snoops hitting in the snoop filter with multiple (>1) holders of the requested data.
system.membus.snoop_filter.hit_single_requests        30266                       # Number of requests hitting in the snoop filter with a single holder of the requested data.
system.membus.snoop_filter.hit_single_snoops            0                       # Number of snoops hitting in the snoop filter with a single holder of the requested data.
system.membus.snoop_filter.tot_requests         69256                       # Total number of requests made to the snoop filter.
system.membus.snoop_filter.tot_snoops               0                       # Total number of snoops made to the snoop filter.
system.tol2bus.snoop_filter.hit_multi_requests           19                       # Number of requests hitting in the snoop filter with multiple (>1) holders of the requested data.
system.tol2bus.snoop_filter.hit_multi_snoops            2                       # Number of snoops hitting in the snoop filter with multiple (>1) holders of the requested data.
system.tol2bus.snoop_filter.hit_single_requests        60869                       # Number of requests hitting in the snoop filter with a single holder of the requested data.
system.tol2bus.snoop_filter.hit_single_snoops          582                       # Number of snoops hitting in the snoop filter with a single holder of the requested data.
system.tol2bus.snoop_filter.tot_requests       122758                       # Total number of requests made to the snoop filter.
system.tol2bus.snoop_filter.tot_snoops            584                       # Total number of snoops made to the snoop filter.
system.clk_domain.clock                           250                       # Clock period in ticks
system.cpu.branchPred.lookups                 2363700                       # Number of BP lookups
system.cpu.branchPred.condPredicted           1911891                       # Number of conditional branches predicted
system.cpu.branchPred.condIncorrect             58341                       # Number of conditional branches incorrect
system.cpu.branchPred.BTBLookups               972529                       # Number of BTB lookups
system.cpu.branchPred.BTBHits                  910204                       # Number of BTB hits
system.cpu.branchPred.BTBHitPct             93.591451                       # BTB Hit Percentage
system.cpu.branchPred.RASUsed                  122380                       # Number of times the RAS was used to get a target.
system.cpu.branchPred.RASIncorrect                  8                       # Number of incorrect RAS predictions.
system.cpu.branchPred.indirectLookups           58787                       # Number of indirect predictor lookups.
system.cpu.branchPred.indirectHits              52134                       # Number of indirect target hits.
system.cpu.branchPred.indirectMisses             6653                       # Number of indirect misses.
system.cpu.branchPred.indirectMispredicted          421                       # Number of mispredicted indirect branches.
system.cpu.commit.commitSquashedInsts         1414471                       # The number of squashed insts skipped by commit
system.cpu.commit.commitNonSpecStalls              66                       # The number of times commit has been forced to stall to communicate backwards
system.cpu.commit.branchMispredicts             47434                       # The number of times a branch was mispredicted
system.cpu.commit.numCommittedDist::samples     10375256                       # Number of insts commited each cycle
system.cpu.commit.numCommittedDist::mean     1.816546                       # Number of insts commited each cycle
system.cpu.commit.numCommittedDist::stdev     2.662092                       # Number of insts commited each cycle
system.cpu.commit.numCommittedDist::underflows            0      0.00%      0.00% # Number of insts commited each cycle
system.cpu.commit.numCommittedDist::0         5709801     55.03%     55.03% # Number of insts commited each cycle
system.cpu.commit.numCommittedDist::1         1075687     10.37%     65.40% # Number of insts commited each cycle
system.cpu.commit.numCommittedDist::2          553161      5.33%     70.73% # Number of insts commited each cycle
system.cpu.commit.numCommittedDist::3          936542      9.03%     79.76% # Number of insts commited each cycle
system.cpu.commit.numCommittedDist::4          243709      2.35%     82.11% # Number of insts commited each cycle
system.cpu.commit.numCommittedDist::5          370975      3.58%     85.68% # Number of insts commited each cycle
system.cpu.commit.numCommittedDist::6          333471      3.21%     88.90% # Number of insts commited each cycle
system.cpu.commit.numCommittedDist::7          190319      1.83%     90.73% # Number of insts commited each cycle
system.cpu.commit.numCommittedDist::8          961591      9.27%    100.00% # Number of insts commited each cycle
system.cpu.commit.numCommittedDist::overflows            0      0.00%    100.00% # Number of insts commited each cycle
system.cpu.commit.numCommittedDist::min_value            0                       # Number of insts commited each cycle
system.cpu.commit.numCommittedDist::max_value            8                       # Number of insts commited each cycle
system.cpu.commit.numCommittedDist::total     10375256                       # Number of insts commited each cycle
system.cpu.commit.instsCommitted             10000001                       # Number of instructions committed
system.cpu.commit.opsCommitted               18847133                       # Number of ops (including micro ops) committed
system.cpu.commit.memRefs                     3855806                       # Number of memory references committed
system.cpu.commit.loads                       2239682                       # Number of loads committed
system.cpu.commit.amos                              0                       # Number of atomic instructions committed
system.cpu.commit.membars                          32                       # Number of memory barriers committed
system.cpu.commit.branches                    2096089                       # Number of branches committed
system.cpu.commit.vector                            0                       # Number of committed Vector instructions.
system.cpu.commit.floating                     432909                       # Number of committed floating point instructions.
system.cpu.commit.integer                    18491276                       # Number of committed integer instructions.
system.cpu.commit.functionCalls                105987                       # Number of function calls committed.
system.cpu.commit.committedInstType_0::No_OpClass       186599      0.99%      0.99% # Class of committed instruction
system.cpu.commit.committedInstType_0::IntAlu     14415807     76.49%     77.48% # Class of committed instruction
system.cpu.commit.committedInstType_0::IntMult        83587      0.44%     77.92% # Class of committed instruction
system.cpu.commit.committedInstType_0::IntDiv       113626      0.60%     78.52% # Class of committed instruction
system.cpu.commit.committedInstType_0::FloatAdd        42444      0.23%     78.75% # Class of committed instruction
system.cpu.commit.committedInstType_0::FloatCmp            0      0.00%     78.75% # Class of committed instruction
system.cpu.commit.committedInstType_0::FloatCvt           32      0.00%     78.75% # Class of committed instruction
system.cpu.commit.committedInstType_0::FloatMult            0      0.00%     78.75% # Class of committed instruction
system.cpu.commit.committedInstType_0::FloatMultAcc            0      0.00%     78.75% # Class of committed instruction
system.cpu.commit.committedInstType_0::FloatDiv            0      0.00%     78.75% # Class of committed instruction
system.cpu.commit.committedInstType_0::FloatMisc            0      0.00%     78.75% # Class of committed instruction
system.cpu.commit.committedInstType_0::FloatSqrt            0      0.00%     78.75% # Class of committed instruction
system.cpu.commit.committedInstType_0::SimdAdd          398      0.00%     78.75% # Class of committed instruction
system.cpu.commit.committedInstType_0::SimdAddAcc            0      0.00%     78.75% # Class of committed instruction
system.cpu.commit.committedInstType_0::SimdAlu        11366      0.06%     78.81% # Class of committed instruction
system.cpu.commit.committedInstType_0::SimdCmp           20      0.00%     78.81% # Class of committed instruction
system.cpu.commit.committedInstType_0::SimdCvt        23970      0.13%     78.94% # Class of committed instruction
system.cpu.commit.committedInstType_0::SimdMisc       113367      0.60%     79.54% # Class of committed instruction
system.cpu.commit.committedInstType_0::SimdMult            0      0.00%     79.54% # Class of committed instruction
system.cpu.commit.committedInstType_0::SimdMultAcc            0      0.00%     79.54% # Class of committed instruction
system.cpu.commit.committedInstType_0::SimdShift          105      0.00%     79.54% # Class of committed instruction
system.cpu.commit.committedInstType_0::SimdShiftAcc            0      0.00%     79.54% # Class of committed instruction
system.cpu.commit.committedInstType_0::SimdDiv            0      0.00%     79.54% # Class of committed instruction
system.cpu.commit.committedInstType_0::SimdSqrt            0      0.00%     79.54% # Class of committed instruction
system.cpu.commit.committedInstType_0::SimdFloatAdd            0      0.00%     79.54% # Class of committed instruction
system.cpu.commit.committedInstType_0::SimdFloatAlu            0      0.00%     79.54% # Class of committed instruction
system.cpu.commit.committedInstType_0::SimdFloatCmp            0      0.00%     79.54% # Class of committed instruction
system.cpu.commit.committedInstType_0::SimdFloatCvt            4      0.00%     79.54% # Class of committed instruction
system.cpu.commit.committedInstType_0::SimdFloatDiv            0      0.00%     79.54% # Class of committed instruction
system.cpu.commit.committedInstType_0::SimdFloatMisc            0      0.00%     79.54% # Class of committed instruction
system.cpu.commit.committedInstType_0::SimdFloatMult            2      0.00%     79.54% # Class of committed instruction
system.cpu.commit.committedInstType_0::SimdFloatMultAcc            0      0.00%     79.54% # Class of committed instruction
system.cpu.commit.committedInstType_0::SimdFloatSqrt            0      0.00%     79.54% # Class of committed instruction
system.cpu.commit.committedInstType_0::SimdReduceAdd            0      0.00%     79.54% # Class of committed instruction
system.cpu.commit.committedInstType_0::SimdReduceAlu            0      0.00%     79.54% # Class of committed instruction
system.cpu.commit.committedInstType_0::SimdReduceCmp            0      0.00%     79.54% # Class of committed instruction
system.cpu.commit.committedInstType_0::SimdFloatReduceAdd            0      0.00%     79.54% # Class of committed instruction
system.cpu.commit.committedInstType_0::SimdFloatReduceCmp            0      0.00%     79.54% # Class of committed instruction
system.cpu.commit.committedInstType_0::SimdAes            0      0.00%     79.54% # Class of committed instruction
system.cpu.commit.committedInstType_0::SimdAesMix            0      0.00%     79.54% # Class of committed instruction
system.cpu.commit.committedInstType_0::SimdSha1Hash            0      0.00%     79.54% # Class of committed instruction
system.cpu.commit.committedInstType_0::SimdSha1Hash2            0      0.00%     79.54% # Class of committed instruction
system.cpu.commit.committedInstType_0::SimdSha256Hash            0      0.00%     79.54% # Class of committed instruction
system.cpu.commit.committedInstType_0::SimdSha256Hash2            0      0.00%     79.54% # Class of committed instruction
system.cpu.commit.committedInstType_0::SimdShaSigma2            0      0.00%     79.54% # Class of committed instruction
system.cpu.commit.committedInstType_0::SimdShaSigma3            0      0.00%     79.54% # Class of committed instruction
system.cpu.commit.committedInstType_0::SimdPredAlu            0      0.00%     79.54% # Class of committed instruction
system.cpu.commit.committedInstType_0::MemRead      2173523     11.53%     91.07% # Class of committed instruction
system.cpu.commit.committedInstType_0::MemWrite      1467717      7.79%     98.86% # Class of committed instruction
system.cpu.commit.committedInstType_0::FloatMemRead        66159      0.35%     99.21% # Class of committed instruction
system.cpu.commit.committedInstType_0::FloatMemWrite       148407      0.79%    100.00% # Class of committed instruction
system.cpu.commit.committedInstType_0::IprAccess            0      0.00%    100.00% # Class of committed instruction
system.cpu.commit.committedInstType_0::InstPrefetch            0      0.00%    100.00% # Class of committed instruction
system.cpu.commit.committedInstType_0::total     18847133                       # Class of committed instruction
system.cpu.commit.commitEligibleSamples        961591                       # number cycles where commit BW limit reached
system.cpu.dcache.demand_hits::.cpu.data      3464047                       # number of demand (read+write) hits
system.cpu.dcache.demand_hits::total          3464047                       # number of demand (read+write) hits
system.cpu.dcache.overall_hits::.cpu.data      3464047                       # number of overall hits
system.cpu.dcache.overall_hits::total         3464047                       # number of overall hits
system.cpu.dcache.demand_misses::.cpu.data        69549                       # number of demand (read+write) misses
system.cpu.dcache.demand_misses::total          69549                       # number of demand (read+write) misses
system.cpu.dcache.overall_misses::.cpu.data        69549                       # number of overall misses
system.cpu.dcache.overall_misses::total         69549                       # number of overall misses
system.cpu.dcache.demand_miss_latency::.cpu.data   4425730498                       # number of demand (read+write) miss cycles
system.cpu.dcache.demand_miss_latency::total   4425730498                       # number of demand (read+write) miss cycles
system.cpu.dcache.overall_miss_latency::.cpu.data   4425730498                       # number of overall miss cycles
system.cpu.dcache.overall_miss_latency::total   4425730498                       # number of overall miss cycles
system.cpu.dcache.demand_accesses::.cpu.data      3533596                       # number of demand (read+write) accesses
system.cpu.dcache.demand_accesses::total      3533596                       # number of demand (read+write) accesses
system.cpu.dcache.overall_accesses::.cpu.data      3533596                       # number of overall (read+write) accesses
system.cpu.dcache.overall_accesses::total      3533596                       # number of overall (read+write) accesses
system.cpu.dcache.demand_miss_rate::.cpu.data     0.019682                       # miss rate for demand accesses
system.cpu.dcache.demand_miss_rate::total     0.019682                       # miss rate for demand accesses
system.cpu.dcache.overall_miss_rate::.cpu.data     0.019682                       # miss rate for overall accesses
system.cpu.dcache.overall_miss_rate::total     0.019682                       # miss rate for overall accesses
system.cpu.dcache.demand_avg_miss_latency::.cpu.data 63634.710751                       # average overall miss latency
system.cpu.dcache.demand_avg_miss_latency::total 63634.710751                       # average overall miss latency
system.cpu.dcache.overall_avg_miss_latency::.cpu.data 63634.710751                       # average overall miss latency
system.cpu.dcache.overall_avg_miss_latency::total 63634.710751                       # average overall miss latency
system.cpu.dcache.blocked_cycles::no_mshrs        16014                       # number of cycles access was blocked
system.cpu.dcache.blocked_cycles::no_targets            0                       # number of cycles access was blocked
system.cpu.dcache.blocked::no_mshrs               386                       # number of cycles access was blocked
system.cpu.dcache.blocked::no_targets               0                       # number of cycles access was blocked
system.cpu.dcache.avg_blocked_cycles::no_mshrs    41.487047                       # average number of cycles each access was blocked
system.cpu.dcache.avg_blocked_cycles::no_targets          nan                       # average number of cycles each access was blocked
system.cpu.dcache.writebacks::.writebacks        40508                       # number of writebacks
system.cpu.dcache.writebacks::total             40508                       # number of writebacks
system.cpu.dcache.demand_mshr_hits::.cpu.data        24881                       # number of demand (read+write) MSHR hits
system.cpu.dcache.demand_mshr_hits::total        24881                       # number of demand (read+write) MSHR hits
system.cpu.dcache.overall_mshr_hits::.cpu.data        24881                       # number of overall MSHR hits
system.cpu.dcache.overall_mshr_hits::total        24881                       # number of overall MSHR hits
system.cpu.dcache.demand_mshr_misses::.cpu.data        44668                       # number of demand (read+write) MSHR misses
system.cpu.dcache.demand_mshr_misses::total        44668                       # number of demand (read+write) MSHR misses
system.cpu.dcache.overall_mshr_misses::.cpu.data        44668                       # number of overall MSHR misses
system.cpu.dcache.overall_mshr_misses::total        44668                       # number of overall MSHR misses
system.cpu.dcache.demand_mshr_miss_latency::.cpu.data   3144222998                       # number of demand (read+write) MSHR miss cycles
system.cpu.dcache.demand_mshr_miss_latency::total   3144222998                       # number of demand (read+write) MSHR miss cycles
system.cpu.dcache.overall_mshr_miss_latency::.cpu.data   3144222998                       # number of overall MSHR miss cycles
system.cpu.dcache.overall_mshr_miss_latency::total   3144222998                       # number of overall MSHR miss cycles
system.cpu.dcache.demand_mshr_miss_rate::.cpu.data     0.012641                       # mshr miss rate for demand accesses
system.cpu.dcache.demand_mshr_miss_rate::total     0.012641                       # mshr miss rate for demand accesses
system.cpu.dcache.overall_mshr_miss_rate::.cpu.data     0.012641                       # mshr miss rate for overall accesses
system.cpu.dcache.overall_mshr_miss_rate::total     0.012641                       # mshr miss rate for overall accesses
system.cpu.dcache.demand_avg_mshr_miss_latency::.cpu.data 70390.950972                       # average overall mshr miss latency
system.cpu.dcache.demand_avg_mshr_miss_latency::total 70390.950972                       # average overall mshr miss latency
system.cpu.dcache.overall_avg_mshr_miss_latency::.cpu.data 70390.950972                       # average overall mshr miss latency
system.cpu.dcache.overall_avg_mshr_miss_latency::total 70390.950972                       # average overall mshr miss latency
system.cpu.dcache.replacements                  44155                       # number of replacements
system.cpu.dcache.ReadReq_hits::.cpu.data      1882957                       # number of ReadReq hits
system.cpu.dcache.ReadReq_hits::total         1882957                       # number of ReadReq hits
system.cpu.dcache.ReadReq_misses::.cpu.data        34513                       # number of ReadReq misses
system.cpu.dcache.ReadReq_misses::total         34513                       # number of ReadReq misses
system.cpu.dcache.ReadReq_miss_latency::.cpu.data   1914578500                       # number of ReadReq miss cycles
system.cpu.dcache.ReadReq_miss_latency::total   1914578500                       # number of ReadReq miss cycles
system.cpu.dcache.ReadReq_accesses::.cpu.data      1917470                       # number of ReadReq accesses(hits+misses)
system.cpu.dcache.ReadReq_accesses::total      1917470                       # number of ReadReq accesses(hits+misses)
system.cpu.dcache.ReadReq_miss_rate::.cpu.data     0.017999                       # miss rate for ReadReq accesses
system.cpu.dcache.ReadReq_miss_rate::total     0.017999                       # miss rate for ReadReq accesses
system.cpu.dcache.ReadReq_avg_miss_latency::.cpu.data 55474.125692                       # average ReadReq miss latency
system.cpu.dcache.ReadReq_avg_miss_latency::total 55474.125692                       # average ReadReq miss latency
system.cpu.dcache.ReadReq_mshr_hits::.cpu.data        22327                       # number of ReadReq MSHR hits
system.cpu.dcache.ReadReq_mshr_hits::total        22327                       # number of ReadReq MSHR hits
system.cpu.dcache.ReadReq_mshr_misses::.cpu.data        12186                       # number of ReadReq MSHR misses
system.cpu.dcache.ReadReq_mshr_misses::total        12186                       # number of ReadReq MSHR misses
system.cpu.dcache.ReadReq_mshr_miss_latency::.cpu.data    711883000                       # number of ReadReq MSHR miss cycles
system.cpu.dcache.ReadReq_mshr_miss_latency::total    711883000                       # number of ReadReq MSHR miss cycles
system.cpu.dcache.ReadReq_mshr_miss_rate::.cpu.data     0.006355                       # mshr miss rate for ReadReq accesses
system.cpu.dcache.ReadReq_mshr_miss_rate::total     0.006355                       # mshr miss rate for ReadReq accesses
system.cpu.dcache.ReadReq_avg_mshr_miss_latency::.cpu.data 58418.102741                       # average ReadReq mshr miss latency
system.cpu.dcache.ReadReq_avg_mshr_miss_latency::total 58418.102741                       # average ReadReq mshr miss latency
system.cpu.dcache.WriteReq_hits::.cpu.data      1581090                       # number of WriteReq hits
system.cpu.dcache.WriteReq_hits::total        1581090                       # number of WriteReq hits
system.cpu.dcache.WriteReq_misses::.cpu.data        35036                       # number of WriteReq misses
system.cpu.dcache.WriteReq_misses::total        35036                       # number of WriteReq misses
system.cpu.dcache.WriteReq_miss_latency::.cpu.data   2511151998                       # number of WriteReq miss cycles
system.cpu.dcache.WriteReq_miss_latency::total   2511151998                       # number of WriteReq miss cycles
system.cpu.dcache.WriteReq_accesses::.cpu.data      1616126                       # number of WriteReq accesses(hits+misses)
system.cpu.dcache.WriteReq_accesses::total      1616126                       # number of WriteReq accesses(hits+misses)
system.cpu.dcache.WriteReq_miss_rate::.cpu.data     0.021679                       # miss rate for WriteReq accesses
system.cpu.dcache.WriteReq_miss_rate::total     0.021679                       # miss rate for WriteReq accesses
system.cpu.dcache.WriteReq_avg_miss_latency::.cpu.data 71673.478651                       # average WriteReq miss latency
system.cpu.dcache.WriteReq_avg_miss_latency::total 71673.478651                       # average WriteReq miss latency
system.cpu.dcache.WriteReq_mshr_hits::.cpu.data         2554                       # number of WriteReq MSHR hits
system.cpu.dcache.WriteReq_mshr_hits::total         2554                       # number of WriteReq MSHR hits
system.cpu.dcache.WriteReq_mshr_misses::.cpu.data        32482                       # number of WriteReq MSHR misses
system.cpu.dcache.WriteReq_mshr_misses::total        32482                       # number of WriteReq MSHR misses
system.cpu.dcache.WriteReq_mshr_miss_latency::.cpu.data   2432339998                       # number of WriteReq MSHR miss cycles
system.cpu.dcache.WriteReq_mshr_miss_latency::total   2432339998                       # number of WriteReq MSHR miss cycles
system.cpu.dcache.WriteReq_mshr_miss_rate::.cpu.data     0.020099                       # mshr miss rate for WriteReq accesses
system.cpu.dcache.WriteReq_mshr_miss_rate::total     0.020099                       # mshr miss rate for WriteReq accesses
system.cpu.dcache.WriteReq_avg_mshr_miss_latency::.cpu.data 74882.704205                       # average WriteReq mshr miss latency
system.cpu.dcache.WriteReq_avg_mshr_miss_latency::total 74882.704205                       # average WriteReq mshr miss latency
system.cpu.dcache.power_state.pwrStateResidencyTicks::UNDEFINED   5337408500                       # Cumulative time (in ticks) in various power states
system.cpu.dcache.tags.tagsinuse           509.304522                       # Cycle average of tags in use
system.cpu.dcache.tags.total_refs             3508715                       # Total number of references to valid blocks.
system.cpu.dcache.tags.sampled_refs             44667                       # Sample count of references to valid blocks.
system.cpu.dcache.tags.avg_refs             78.552735                       # Average number of references to valid blocks.
system.cpu.dcache.tags.warmup_cycle            163000                       # Cycle when the warmup percentage was hit.
system.cpu.dcache.tags.occ_blocks::.cpu.data   509.304522                       # Average occupied blocks per requestor
system.cpu.dcache.tags.occ_percent::.cpu.data     0.994735                       # Average percentage of cache occupancy
system.cpu.dcache.tags.occ_percent::total     0.994735                       # Average percentage of cache occupancy
system.cpu.dcache.tags.occ_task_id_blocks::1024          512                       # Occupied blocks per task id
system.cpu.dcache.tags.age_task_id_blocks_1024::0           76                       # Occupied blocks per task id
system.cpu.dcache.tags.age_task_id_blocks_1024::1          331                       # Occupied blocks per task id
system.cpu.dcache.tags.age_task_id_blocks_1024::2           74                       # Occupied blocks per task id
system.cpu.dcache.tags.age_task_id_blocks_1024::3           31                       # Occupied blocks per task id
system.cpu.dcache.tags.occ_task_id_percent::1024            1                       # Percentage of cache occupancy per task id
system.cpu.dcache.tags.tag_accesses           7111859                       # Number of tag accesses
system.cpu.dcache.tags.data_accesses          7111859                       # Number of data accesses
system.cpu.dcache.tags.power_state.pwrStateResidencyTicks::UNDEFINED   5337408500                       # Cumulative time (in ticks) in various power states
system.cpu.decode.idleCycles                  1989720                       # Number of cycles decode is idle
system.cpu.decode.blockedCycles               5282235                       # Number of cycles decode is blocked
system.cpu.decode.runCycles                   2973930                       # Number of cycles decode is running
system.cpu.decode.unblockCycles                294624                       # Number of cycles decode is unblocking
system.cpu.decode.squashCycles                  48366                       # Number of cycles decode is squashing
system.cpu.decode.branchResolved               899759                       # Number of times decode resolved a  branch
system.cpu.decode.branchMispred                 11145                       # Number of times decode detected a branch misprediction
system.cpu.decode.decodedInsts               20762379                       # Number of instructions handled by decode
system.cpu.decode.squashedInsts                 60739                       # Number of squashed instructions handled by decode
system.cpu.dtb.rdAccesses                     2382393                       # TLB accesses on read requests
system.cpu.dtb.wrAccesses                     1659330                       # TLB accesses on write requests
system.cpu.dtb.rdMisses                           626                       # TLB misses on read requests
system.cpu.dtb.wrMisses                         18316                       # TLB misses on write requests
system.cpu.dtb.walker.power_state.pwrStateResidencyTicks::UNDEFINED   5337408500                       # Cumulative time (in ticks) in various power states
system.cpu.dtb_walker_cache.blocked_cycles::no_mshrs            0                       # number of cycles access was blocked
system.cpu.dtb_walker_cache.blocked_cycles::no_targets            0                       # number of cycles access was blocked
system.cpu.dtb_walker_cache.blocked::no_mshrs            0                       # number of cycles access was blocked
system.cpu.dtb_walker_cache.blocked::no_targets            0                       # number of cycles access was blocked
system.cpu.dtb_walker_cache.avg_blocked_cycles::no_mshrs          nan                       # average number of cycles each access was blocked
system.cpu.dtb_walker_cache.avg_blocked_cycles::no_targets          nan                       # average number of cycles each access was blocked
system.cpu.dtb_walker_cache.replacements            0                       # number of replacements
system.cpu.dtb_walker_cache.power_state.pwrStateResidencyTicks::UNDEFINED   5337408500                       # Cumulative time (in ticks) in various power states
system.cpu.dtb_walker_cache.tags.tagsinuse            0                       # Cycle average of tags in use
system.cpu.dtb_walker_cache.tags.total_refs            0                       # Total number of references to valid blocks.
system.cpu.dtb_walker_cache.tags.sampled_refs            0                       # Sample count of references to valid blocks.
system.cpu.dtb_walker_cache.tags.avg_refs          nan                       # Average number of references to valid blocks.
system.cpu.dtb_walker_cache.tags.warmup_cycle            0                       # Cycle when the warmup percentage was hit.
system.cpu.dtb_walker_cache.tags.tag_accesses            0                       # Number of tag accesses
system.cpu.dtb_walker_cache.tags.data_accesses            0                       # Number of data accesses
system.cpu.dtb_walker_cache.tags.power_state.pwrStateResidencyTicks::UNDEFINED   5337408500                       # Cumulative time (in ticks) in various power states
system.cpu.fetch.icacheStallCycles            2208428                       # Number of cycles fetch is stalled on an Icache miss
system.cpu.fetch.insts                       11314842                       # Number of instructions fetch has processed
system.cpu.fetch.branches                     2363700                       # Number of branches that fetch encountered
system.cpu.fetch.predictedBranches            1084718                       # Number of branches that fetch has predicted taken
system.cpu.fetch.cycles                       8318813                       # Number of cycles fetch has run and was not squashing or blocked
system.cpu.fetch.squashCycles                  118984                       # Number of cycles fetch has spent squashing
system.cpu.fetch.miscStallCycles                  250                       # Number of cycles fetch has spent waiting on interrupts,or bad addresses, or out of MSHRs
system.cpu.fetch.pendingTrapStallCycles          1883                       # Number of stall cycles due to pending traps
system.cpu.fetch.pendingQuiesceStallCycles            9                       # Number of stall cycles due to pending quiesce instructions
system.cpu.fetch.cacheLines                   1744814                       # Number of cache lines fetched
system.cpu.fetch.icacheSquashes                 15852                       # Number of outstanding Icache misses that were squashed
system.cpu.fetch.nisnDist::samples           10588875                       # Number of instructions fetched each cycle (Total)
system.cpu.fetch.nisnDist::mean              2.018786                       # Number of instructions fetched each cycle (Total)
system.cpu.fetch.nisnDist::stdev             3.166599                       # Number of instructions fetched each cycle (Total)
system.cpu.fetch.nisnDist::underflows               0      0.00%      0.00% # Number of instructions fetched each cycle (Total)
system.cpu.fetch.nisnDist::0                  7011004     66.21%     66.21% # Number of instructions fetched each cycle (Total)
system.cpu.fetch.nisnDist::1                   162925      1.54%     67.75% # Number of instructions fetched each cycle (Total)
system.cpu.fetch.nisnDist::2                   387887      3.66%     71.41% # Number of instructions fetched each cycle (Total)
system.cpu.fetch.nisnDist::3                   305342      2.88%     74.30% # Number of instructions fetched each cycle (Total)
system.cpu.fetch.nisnDist::4                   213225      2.01%     76.31% # Number of instructions fetched each cycle (Total)
system.cpu.fetch.nisnDist::5                   230920      2.18%     78.49% # Number of instructions fetched each cycle (Total)
system.cpu.fetch.nisnDist::6                   256692      2.42%     80.92% # Number of instructions fetched each cycle (Total)
system.cpu.fetch.nisnDist::7                   192743      1.82%     82.74% # Number of instructions fetched each cycle (Total)
system.cpu.fetch.nisnDist::8                  1828137     17.26%    100.00% # Number of instructions fetched each cycle (Total)
system.cpu.fetch.nisnDist::overflows                0      0.00%    100.00% # Number of instructions fetched each cycle (Total)
system.cpu.fetch.nisnDist::min_value                0                       # Number of instructions fetched each cycle (Total)
system.cpu.fetch.nisnDist::max_value                8                       # Number of instructions fetched each cycle (Total)
system.cpu.fetch.nisnDist::total             10588875                       # Number of instructions fetched each cycle (Total)
system.cpu.fetch.branchRate                  0.221428                       # Number of branch fetches per cycle
system.cpu.fetch.rate                        1.059956                       # Number of inst fetches per cycle
system.cpu.icache.demand_hits::.cpu.inst      1727134                       # number of demand (read+write) hits
system.cpu.icache.demand_hits::total          1727134                       # number of demand (read+write) hits
system.cpu.icache.overall_hits::.cpu.inst      1727134                       # number of overall hits
system.cpu.icache.overall_hits::total         1727134                       # number of overall hits
system.cpu.icache.demand_misses::.cpu.inst        17680                       # number of demand (read+write) misses
system.cpu.icache.demand_misses::total          17680                       # number of demand (read+write) misses
system.cpu.icache.overall_misses::.cpu.inst        17680                       # number of overall misses
system.cpu.icache.overall_misses::total         17680                       # number of overall misses
system.cpu.icache.demand_miss_latency::.cpu.inst    328218500                       # number of demand (read+write) miss cycles
system.cpu.icache.demand_miss_latency::total    328218500                       # number of demand (read+write) miss cycles
system.cpu.icache.overall_miss_latency::.cpu.inst    328218500                       # number of overall miss cycles
system.cpu.icache.overall_miss_latency::total    328218500                       # number of overall miss cycles
system.cpu.icache.demand_accesses::.cpu.inst      1744814                       # number of demand (read+write) accesses
system.cpu.icache.demand_accesses::total      1744814                       # number of demand (read+write) accesses
system.cpu.icache.overall_accesses::.cpu.inst      1744814                       # number of overall (read+write) accesses
system.cpu.icache.overall_accesses::total      1744814                       # number of overall (read+write) accesses
system.cpu.icache.demand_miss_rate::.cpu.inst     0.010133                       # miss rate for demand accesses
system.cpu.icache.demand_miss_rate::total     0.010133                       # miss rate for demand accesses
system.cpu.icache.overall_miss_rate::.cpu.inst     0.010133                       # miss rate for overall accesses
system.cpu.icache.overall_miss_rate::total     0.010133                       # miss rate for overall accesses
system.cpu.icache.demand_avg_miss_latency::.cpu.inst 18564.394796                       # average overall miss latency
system.cpu.icache.demand_avg_miss_latency::total 18564.394796                       # average overall miss latency
system.cpu.icache.overall_avg_miss_latency::.cpu.inst 18564.394796                       # average overall miss latency
system.cpu.icache.overall_avg_miss_latency::total 18564.394796                       # average overall miss latency
system.cpu.icache.blocked_cycles::no_mshrs          280                       # number of cycles access was blocked
system.cpu.icache.blocked_cycles::no_targets            0                       # number of cycles access was blocked
system.cpu.icache.blocked::no_mshrs                 5                       # number of cycles access was blocked
system.cpu.icache.blocked::no_targets               0                       # number of cycles access was blocked
system.cpu.icache.avg_blocked_cycles::no_mshrs           56                       # average number of cycles each access was blocked
system.cpu.icache.avg_blocked_cycles::no_targets          nan                       # average number of cycles each access was blocked
system.cpu.icache.writebacks::.writebacks        16713                       # number of writebacks
system.cpu.icache.writebacks::total             16713                       # number of writebacks
system.cpu.icache.demand_mshr_hits::.cpu.inst          458                       # number of demand (read+write) MSHR hits
system.cpu.icache.demand_mshr_hits::total          458                       # number of demand (read+write) MSHR hits
system.cpu.icache.overall_mshr_hits::.cpu.inst          458                       # number of overall MSHR hits
system.cpu.icache.overall_mshr_hits::total          458                       # number of overall MSHR hits
system.cpu.icache.demand_mshr_misses::.cpu.inst        17222                       # number of demand (read+write) MSHR misses
system.cpu.icache.demand_mshr_misses::total        17222                       # number of demand (read+write) MSHR misses
system.cpu.icache.overall_mshr_misses::.cpu.inst        17222                       # number of overall MSHR misses
system.cpu.icache.overall_mshr_misses::total        17222                       # number of overall MSHR misses
system.cpu.icache.demand_mshr_miss_latency::.cpu.inst    285742500                       # number of demand (read+write) MSHR miss cycles
system.cpu.icache.demand_mshr_miss_latency::total    285742500                       # number of demand (read+write) MSHR miss cycles
system.cpu.icache.overall_mshr_miss_latency::.cpu.inst    285742500                       # number of overall MSHR miss cycles
system.cpu.icache.overall_mshr_miss_latency::total    285742500                       # number of overall MSHR miss cycles
system.cpu.icache.demand_mshr_miss_rate::.cpu.inst     0.009870                       # mshr miss rate for demand accesses
system.cpu.icache.demand_mshr_miss_rate::total     0.009870                       # mshr miss rate for demand accesses
system.cpu.icache.overall_mshr_miss_rate::.cpu.inst     0.009870                       # mshr miss rate for overall accesses
system.cpu.icache.overall_mshr_miss_rate::total     0.009870                       # mshr miss rate for overall accesses
system.cpu.icache.demand_avg_mshr_miss_latency::.cpu.inst 16591.714087                       # average overall mshr miss latency
system.cpu.icache.demand_avg_mshr_miss_latency::total 16591.714087                       # average overall mshr miss latency
system.cpu.icache.overall_avg_mshr_miss_latency::.cpu.inst 16591.714087                       # average overall mshr miss latency
system.cpu.icache.overall_avg_mshr_miss_latency::total 16591.714087                       # average overall mshr miss latency
system.cpu.icache.replacements                  16713                       # number of replacements
system.cpu.icache.ReadReq_hits::.cpu.inst      1727134                       # number of ReadReq hits
system.cpu.icache.ReadReq_hits::total         1727134                       # number of ReadReq hits
system.cpu.icache.ReadReq_misses::.cpu.inst        17680                       # number of ReadReq misses
system.cpu.icache.ReadReq_misses::total         17680                       # number of ReadReq misses
system.cpu.icache.ReadReq_miss_latency::.cpu.inst    328218500                       # number of ReadReq miss cycles
system.cpu.icache.ReadReq_miss_latency::total    328218500                       # number of ReadReq miss cycles
system.cpu.icache.ReadReq_accesses::.cpu.inst      1744814                       # number of ReadReq accesses(hits+misses)
system.cpu.icache.ReadReq_accesses::total      1744814                       # number of ReadReq accesses(hits+misses)
system.cpu.icache.ReadReq_miss_rate::.cpu.inst     0.010133                       # miss rate for ReadReq accesses
system.cpu.icache.ReadReq_miss_rate::total     0.010133                       # miss rate for ReadReq accesses
system.cpu.icache.ReadReq_avg_miss_latency::.cpu.inst 18564.394796                       # average ReadReq miss latency
system.cpu.icache.ReadReq_avg_miss_latency::total 18564.394796                       # average ReadReq miss latency
system.cpu.icache.ReadReq_mshr_hits::.cpu.inst          458                       # number of ReadReq MSHR hits
system.cpu.icache.ReadReq_mshr_hits::total          458                       # number of ReadReq MSHR hits
system.cpu.icache.ReadReq_mshr_misses::.cpu.inst        17222                       # number of ReadReq MSHR misses
system.cpu.icache.ReadReq_mshr_misses::total        17222                       # number of ReadReq MSHR misses
system.cpu.icache.ReadReq_mshr_miss_latency::.cpu.inst    285742500                       # number of ReadReq MSHR miss cycles
system.cpu.icache.ReadReq_mshr_miss_latency::total    285742500                       # number of ReadReq MSHR miss cycles
system.cpu.icache.ReadReq_mshr_miss_rate::.cpu.inst     0.009870                       # mshr miss rate for ReadReq accesses
system.cpu.icache.ReadReq_mshr_miss_rate::total     0.009870                       # mshr miss rate for ReadReq accesses
system.cpu.icache.ReadReq_avg_mshr_miss_latency::.cpu.inst 16591.714087                       # average ReadReq mshr miss latency
system.cpu.icache.ReadReq_avg_mshr_miss_latency::total 16591.714087                       # average ReadReq mshr miss latency
system.cpu.icache.power_state.pwrStateResidencyTicks::UNDEFINED   5337408500                       # Cumulative time (in ticks) in various power states
system.cpu.icache.tags.tagsinuse           505.040150                       # Cycle average of tags in use
system.cpu.icache.tags.total_refs             1744356                       # Total number of references to valid blocks.
system.cpu.icache.tags.sampled_refs             17222                       # Sample count of references to valid blocks.
system.cpu.icache.tags.avg_refs            101.286494                       # Average number of references to valid blocks.
system.cpu.icache.tags.warmup_cycle             79500                       # Cycle when the warmup percentage was hit.
system.cpu.icache.tags.occ_blocks::.cpu.inst   505.040150                       # Average occupied blocks per requestor
system.cpu.icache.tags.occ_percent::.cpu.inst     0.986407                       # Average percentage of cache occupancy
system.cpu.icache.tags.occ_percent::total     0.986407                       # Average percentage of cache occupancy
system.cpu.icache.tags.occ_task_id_blocks::1024          508                       # Occupied blocks per task id
system.cpu.icache.tags.age_task_id_blocks_1024::0            2                       # Occupied blocks per task id
system.cpu.icache.tags.age_task_id_blocks_1024::2            1                       # Occupied blocks per task id
system.cpu.icache.tags.age_task_id_blocks_1024::3          505                       # Occupied blocks per task id
system.cpu.icache.tags.occ_task_id_percent::1024     0.992188                       # Percentage of cache occupancy per task id
system.cpu.icache.tags.tag_accesses           3506850                       # Number of tag accesses
system.cpu.icache.tags.data_accesses          3506850                       # Number of data accesses
system.cpu.icache.tags.power_state.pwrStateResidencyTicks::UNDEFINED   5337408500                       # Cumulative time (in ticks) in various power states
system.cpu.interrupts.clk_domain.clock           8000                       # Clock period in ticks
system.cpu.itb.rdAccesses                           0                       # TLB accesses on read requests
system.cpu.itb.wrAccesses                     1745089                       # TLB accesses on write requests
system.cpu.itb.rdMisses                             0                       # TLB misses on read requests
system.cpu.itb.wrMisses                           408                       # TLB misses on write requests
system.cpu.itb.walker.power_state.pwrStateResidencyTicks::UNDEFINED   5337408500                       # Cumulative time (in ticks) in various power states
system.cpu.itb_walker_cache.blocked_cycles::no_mshrs            0                       # number of cycles access was blocked
system.cpu.itb_walker_cache.blocked_cycles::no_targets            0                       # number of cycles access was blocked
system.cpu.itb_walker_cache.blocked::no_mshrs            0                       # number of cycles access was blocked
system.cpu.itb_walker_cache.blocked::no_targets            0                       # number of cycles access was blocked
system.cpu.itb_walker_cache.avg_blocked_cycles::no_mshrs          nan                       # average number of cycles each access was blocked
system.cpu.itb_walker_cache.avg_blocked_cycles::no_targets          nan                       # average number of cycles each access was blocked
system.cpu.itb_walker_cache.replacements            0                       # number of replacements
system.cpu.itb_walker_cache.power_state.pwrStateResidencyTicks::UNDEFINED   5337408500                       # Cumulative time (in ticks) in various power states
system.cpu.itb_walker_cache.tags.tagsinuse            0                       # Cycle average of tags in use
system.cpu.itb_walker_cache.tags.total_refs            0                       # Total number of references to valid blocks.
system.cpu.itb_walker_cache.tags.sampled_refs            0                       # Sample count of references to valid blocks.
system.cpu.itb_walker_cache.tags.avg_refs          nan                       # Average number of references to valid blocks.
system.cpu.itb_walker_cache.tags.warmup_cycle            0                       # Cycle when the warmup percentage was hit.
system.cpu.itb_walker_cache.tags.tag_accesses            0                       # Number of tag accesses
system.cpu.itb_walker_cache.tags.data_accesses            0                       # Number of data accesses
system.cpu.itb_walker_cache.tags.power_state.pwrStateResidencyTicks::UNDEFINED   5337408500                       # Cumulative time (in ticks) in various power states
system.cpu.lsq0.forwLoads                      459193                       # Number of loads that had data forwarded from stores
system.cpu.lsq0.squashedLoads                  169794                       # Number of loads squashed
system.cpu.lsq0.ignoredResponses                 5695                       # Number of memory responses ignored because the instruction is squashed
system.cpu.lsq0.memOrderViolation                 190                       # Number of memory ordering violations
system.cpu.lsq0.squashedStores                  69159                       # Number of stores squashed
system.cpu.lsq0.rescheduledLoads                 5255                       # Number of loads that were rescheduled
system.cpu.lsq0.blockedByCache                    285                       # Number of times an access to memory failed due to the cache being blocked
system.cpu.power_state.pwrStateResidencyTicks::ON   5337408500                       # Cumulative time (in ticks) in various power states
system.cpu.rename.squashCycles                  48366                       # Number of cycles rename is squashing
system.cpu.rename.idleCycles                  2138384                       # Number of cycles rename is idle
system.cpu.rename.blockCycles                 1681993                       # Number of cycles rename is blocking
system.cpu.rename.serializeStallCycles           2714                       # count of cycles rename stalledfor serializing inst
system.cpu.rename.runCycles                   3112514                       # Number of cycles rename is running
system.cpu.rename.unblockCycles               3604904                       # Number of cycles rename is unblocking
system.cpu.rename.renamedInsts               20610974                       # Number of instructions processed by rename
system.cpu.rename.ROBFullEvents                  7558                       # Number of times rename has blocked due to ROB full
system.cpu.rename.IQFullEvents                 128716                       # Number of times rename has blocked due to IQ full
system.cpu.rename.LQFullEvents                   1043                       # Number of times rename has blocked due to LQ full
system.cpu.rename.SQFullEvents                3428739                       # Number of times rename has blocked due to SQ full
system.cpu.rename.renamedOperands            22866073                       # Number of destination operands rename has renamed
system.cpu.rename.lookups                    54124741                       # Number of register rename lookups that rename has made
system.cpu.rename.intLookups                 32049427                       # Number of integer rename lookups
system.cpu.rename.fpLookups                    604895                       # Number of floating rename lookups
system.cpu.rename.committedMaps              20863668                       # Number of HB maps that are committed
system.cpu.rename.undoneMaps                  2002367                       # Number of HB maps that are undone due to squashing
system.cpu.rename.serializing                      40                       # count of serializing insts renamed
system.cpu.rename.tempSerializing                  23                       # count of temporary serializing insts renamed
system.cpu.rename.skidInsts                   1687766                       # count of insts added to the skid buffer
system.cpu.rob.reads                         29665220                       # The number of ROB reads
system.cpu.rob.writes                        40741851                       # The number of ROB writes
system.cpu.thread_0.numInsts                 10000001                       # Number of Instructions committed
system.cpu.thread_0.numOps                   18847133                       # Number of Ops committed
system.cpu.thread_0.numMemRefs                      0                       # Number of Memory References
system.cpu_clk_domain.clock                       500                       # Clock period in ticks
system.cpu_voltage_domain.voltage                   1                       # Voltage in Volts
system.l2.demand_hits::.cpu.inst                15882                       # number of demand (read+write) hits
system.l2.demand_hits::.cpu.data                 7014                       # number of demand (read+write) hits
system.l2.demand_hits::total                    22896                       # number of demand (read+write) hits
system.l2.overall_hits::.cpu.inst               15882                       # number of overall hits
system.l2.overall_hits::.cpu.data                7014                       # number of overall hits
system.l2.overall_hits::total                   22896                       # number of overall hits
system.l2.demand_misses::.cpu.inst               1339                       # number of demand (read+write) misses
system.l2.demand_misses::.cpu.data              37653                       # number of demand (read+write) misses
system.l2.demand_misses::total                  38992                       # number of demand (read+write) misses
system.l2.overall_misses::.cpu.inst              1339                       # number of overall misses
system.l2.overall_misses::.cpu.data             37653                       # number of overall misses
system.l2.overall_misses::total                 38992                       # number of overall misses
system.l2.demand_miss_latency::.cpu.inst     92929500                       # number of demand (read+write) miss cycles
system.l2.demand_miss_latency::.cpu.data   3001704500                       # number of demand (read+write) miss cycles
system.l2.demand_miss_latency::total       3094634000                       # number of demand (read+write) miss cycles
system.l2.overall_miss_latency::.cpu.inst     92929500                       # number of overall miss cycles
system.l2.overall_miss_latency::.cpu.data   3001704500                       # number of overall miss cycles
system.l2.overall_miss_latency::total      3094634000                       # number of overall miss cycles
system.l2.demand_accesses::.cpu.inst            17221                       # number of demand (read+write) accesses
system.l2.demand_accesses::.cpu.data            44667                       # number of demand (read+write) accesses
system.l2.demand_accesses::total                61888                       # number of demand (read+write) accesses
system.l2.overall_accesses::.cpu.inst           17221                       # number of overall (read+write) accesses
system.l2.overall_accesses::.cpu.data           44667                       # number of overall (read+write) accesses
system.l2.overall_accesses::total               61888                       # number of overall (read+write) accesses
system.l2.demand_miss_rate::.cpu.inst        0.077754                       # miss rate for demand accesses
system.l2.demand_miss_rate::.cpu.data        0.842971                       # miss rate for demand accesses
system.l2.demand_miss_rate::total            0.630041                       # miss rate for demand accesses
system.l2.overall_miss_rate::.cpu.inst       0.077754                       # miss rate for overall accesses
system.l2.overall_miss_rate::.cpu.data       0.842971                       # miss rate for overall accesses
system.l2.overall_miss_rate::total           0.630041                       # miss rate for overall accesses
system.l2.demand_avg_miss_latency::.cpu.inst 69402.165795                       # average overall miss latency
system.l2.demand_avg_miss_latency::.cpu.data 79720.194938                       # average overall miss latency
system.l2.demand_avg_miss_latency::total 79365.869922                       # average overall miss latency
system.l2.overall_avg_miss_latency::.cpu.inst 69402.165795                       # average overall miss latency
system.l2.overall_avg_miss_latency::.cpu.data 79720.194938                       # average overall miss latency
system.l2.overall_avg_miss_latency::total 79365.869922                       # average overall miss latency
[...]
system.mem_ctrls.dram.readBursts                38992                       # Number of DRAM read bursts
system.mem_ctrls.dram.writeBursts               27370                       # Number of DRAM write bursts
system.mem_ctrls.dram.perBankRdBursts::0         2327                       # Per bank write bursts
system.mem_ctrls.dram.perBankRdBursts::1         2381                       # Per bank write bursts
system.mem_ctrls.dram.perBankRdBursts::2         2546                       # Per bank write bursts
system.mem_ctrls.dram.perBankRdBursts::3         2366                       # Per bank write bursts
system.mem_ctrls.dram.perBankRdBursts::4         2517                       # Per bank write bursts
system.mem_ctrls.dram.perBankRdBursts::5         2593                       # Per bank write bursts
system.mem_ctrls.dram.perBankRdBursts::6         2337                       # Per bank write bursts
system.mem_ctrls.dram.perBankRdBursts::7         2504                       # Per bank write bursts
system.mem_ctrls.dram.perBankRdBursts::8         2444                       # Per bank write bursts
system.mem_ctrls.dram.perBankRdBursts::9         2396                       # Per bank write bursts
system.mem_ctrls.dram.perBankRdBursts::10         2351                       # Per bank write bursts
system.mem_ctrls.dram.perBankRdBursts::11         2375                       # Per bank write bursts
system.mem_ctrls.dram.perBankRdBursts::12         2581                       # Per bank write bursts
system.mem_ctrls.dram.perBankRdBursts::13         2439                       # Per bank write bursts
system.mem_ctrls.dram.perBankRdBursts::14         2450                       # Per bank write bursts
system.mem_ctrls.dram.perBankRdBursts::15         2385                       # Per bank write bursts
system.mem_ctrls.dram.perBankWrBursts::0         1610                       # Per bank write bursts
system.mem_ctrls.dram.perBankWrBursts::1         1588                       # Per bank write bursts
system.mem_ctrls.dram.perBankWrBursts::2         1830                       # Per bank write bursts
system.mem_ctrls.dram.perBankWrBursts::3         1717                       # Per bank write bursts
system.mem_ctrls.dram.perBankWrBursts::4         1763                       # Per bank write bursts
system.mem_ctrls.dram.perBankWrBursts::5         1731                       # Per bank write bursts
system.mem_ctrls.dram.perBankWrBursts::6         1659                       # Per bank write bursts
system.mem_ctrls.dram.perBankWrBursts::7         1792                       # Per bank write bursts
system.mem_ctrls.dram.perBankWrBursts::8         1769                       # Per bank write bursts
system.mem_ctrls.dram.perBankWrBursts::9         1719                       # Per bank write bursts
system.mem_ctrls.dram.perBankWrBursts::10         1681                       # Per bank write bursts
system.mem_ctrls.dram.perBankWrBursts::11         1652                       # Per bank write bursts
system.mem_ctrls.dram.perBankWrBursts::12         1782                       # Per bank write bursts
system.mem_ctrls.dram.perBankWrBursts::13         1714                       # Per bank write bursts
system.mem_ctrls.dram.perBankWrBursts::14         1660                       # Per bank write bursts
system.mem_ctrls.dram.perBankWrBursts::15         1703                       # Per bank write bursts
system.mem_ctrls.dram.totQLat               679600500                       # Total ticks spent queuing
system.mem_ctrls.dram.totBusLat             194960000                       # Total ticks spent in databus transfers
system.mem_ctrls.dram.totMemAccLat         1410700500                       # Total ticks spent from burst creation until serviced by the DRAM
system.mem_ctrls.dram.avgQLat                17429.23                       # Average queueing delay per DRAM burst
system.mem_ctrls.dram.avgBusLat               5000.00                       # Average bus latency per DRAM burst
system.mem_ctrls.dram.avgMemAccLat           36179.23                       # Average memory access latency per DRAM burst
system.mem_ctrls.dram.readRowHits               19112                       # Number of row buffer hits during reads
system.mem_ctrls.dram.writeRowHits              14625                       # Number of row buffer hits during writes
system.mem_ctrls.dram.readRowHitRate            49.02                       # Row buffer hit rate for reads
system.mem_ctrls.dram.writeRowHitRate           53.43                       # Row buffer hit rate for writes
system.mem_ctrls.dram.bytesPerActivate::samples        32613                       # Bytes accessed per row activation
system.mem_ctrls.dram.bytesPerActivate::mean   130.197897                       # Bytes accessed per row activation
system.mem_ctrls.dram.bytesPerActivate::gmean    96.629357                       # Bytes accessed per row activation
system.mem_ctrls.dram.bytesPerActivate::stdev   143.809422                       # Bytes accessed per row activation
system.mem_ctrls.dram.bytesPerActivate::0-127        21251     65.16%     65.16% # Bytes accessed per row activation
system.mem_ctrls.dram.bytesPerActivate::128-255         7205     22.09%     87.25% # Bytes accessed per row activation
system.mem_ctrls.dram.bytesPerActivate::256-383         1817      5.57%     92.82% # Bytes accessed per row activation
system.mem_ctrls.dram.bytesPerActivate::384-511          922      2.83%     95.65% # Bytes accessed per row activation
system.mem_ctrls.dram.bytesPerActivate::512-639          709      2.17%     97.83% # Bytes accessed per row activation
system.mem_ctrls.dram.bytesPerActivate::640-767          308      0.94%     98.77% # Bytes accessed per row activation
system.mem_ctrls.dram.bytesPerActivate::768-895          170      0.52%     99.29% # Bytes accessed per row activation
system.mem_ctrls.dram.bytesPerActivate::896-1023           68      0.21%     99.50% # Bytes accessed per row activation
system.mem_ctrls.dram.bytesPerActivate::1024-1151          163      0.50%    100.00% # Bytes accessed per row activation
system.mem_ctrls.dram.bytesPerActivate::total        32613                       # Bytes accessed per row activation
system.mem_ctrls.dram.bytesRead               2495488                       # Total number of bytes read from DRAM
system.mem_ctrls.dram.bytesWritten            1751680                       # Total number of bytes written to DRAM
system.mem_ctrls.dram.avgRdBW              467.546750                       # Average DRAM read bandwidth in MiBytes/s
system.mem_ctrls.dram.avgWrBW              328.189233                       # Average DRAM write bandwidth in MiBytes/s
system.mem_ctrls.dram.peakBW                 12800.00                       # Theoretical peak bandwidth in MiByte/s
system.mem_ctrls.dram.busUtil                    6.22                       # Data bus utilization in percentage
system.mem_ctrls.dram.busUtilRead                3.65                       # Data bus utilization in percentage for reads
system.mem_ctrls.dram.busUtilWrite               2.56                       # Data bus utilization in percentage for writes
system.mem_ctrls.dram.pageHitRate               50.84                       # Row buffer hit rate, read and write combined
system.mem_ctrls.dram.power_state.pwrStateResidencyTicks::UNDEFINED   5337408500                       # Cumulative time (in ticks) in various power states
system.mem_ctrls.dram.rank0.actEnergy       117153120                       # Energy for activate commands per rank (pJ)
system.mem_ctrls.dram.rank0.preEnergy        62241795                       # Energy for precharge commands per rank (pJ)
system.mem_ctrls.dram.rank0.readEnergy      139736940                       # Energy for read commands per rank (pJ)
system.mem_ctrls.dram.rank0.writeEnergy      71461800                       # Energy for write commands per rank (pJ)
system.mem_ctrls.dram.rank0.refreshEnergy 421028400.000000                       # Energy for refresh commands per rank (pJ)
system.mem_ctrls.dram.rank0.actBackEnergy   2360119770                       # Energy for active background per rank (pJ)
system.mem_ctrls.dram.rank0.preBackEnergy     62095680                       # Energy for precharge background per rank (pJ)
system.mem_ctrls.dram.rank0.actPowerDownEnergy            0                       # Energy for active power-down per rank (pJ)
system.mem_ctrls.dram.rank0.prePowerDownEnergy            0                       # Energy for precharge power-down per rank (pJ)
system.mem_ctrls.dram.rank0.selfRefreshEnergy            0                       # Energy for self refresh per rank (pJ)
system.mem_ctrls.dram.rank0.totalEnergy    3233837505                       # Total energy per rank (pJ)
system.mem_ctrls.dram.rank0.averagePower   605.881582                       # Core power per rank (mW)
system.mem_ctrls.dram.rank0.totalIdleTime            0                       # Total Idle time Per DRAM Rank
system.mem_ctrls.dram.rank0.pwrStateTime::IDLE    141757500                       # Time in different power states
system.mem_ctrls.dram.rank0.pwrStateTime::REF    178100000                       # Time in different power states
system.mem_ctrls.dram.rank0.pwrStateTime::SREF            0                       # Time in different power states
system.mem_ctrls.dram.rank0.pwrStateTime::PRE_PDN            0                       # Time in different power states
system.mem_ctrls.dram.rank0.pwrStateTime::ACT   5017551000                       # Time in different power states
system.mem_ctrls.dram.rank0.pwrStateTime::ACT_PDN            0                       # Time in different power states
system.mem_ctrls.dram.rank1.actEnergy       115789380                       # Energy for activate commands per rank (pJ)
system.mem_ctrls.dram.rank1.preEnergy        61524540                       # Energy for precharge commands per rank (pJ)
system.mem_ctrls.dram.rank1.readEnergy      138665940                       # Energy for read commands per rank (pJ)
system.mem_ctrls.dram.rank1.writeEnergy      71409600                       # Energy for write commands per rank (pJ)
system.mem_ctrls.dram.rank1.refreshEnergy 421028400.000000                       # Energy for refresh commands per rank (pJ)
system.mem_ctrls.dram.rank1.actBackEnergy   2354452830                       # Energy for active background per rank (pJ)
system.mem_ctrls.dram.rank1.preBackEnergy     66867840                       # Energy for precharge background per rank (pJ)
system.mem_ctrls.dram.rank1.actPowerDownEnergy            0                       # Energy for active power-down per rank (pJ)
system.mem_ctrls.dram.rank1.prePowerDownEnergy            0                       # Energy for precharge power-down per rank (pJ)
system.mem_ctrls.dram.rank1.selfRefreshEnergy            0                       # Energy for self refresh per rank (pJ)
system.mem_ctrls.dram.rank1.totalEnergy    3229738530                       # Total energy per rank (pJ)
system.mem_ctrls.dram.rank1.averagePower   605.113611                       # Core power per rank (mW)
system.mem_ctrls.dram.rank1.totalIdleTime            0                       # Total Idle time Per DRAM Rank
system.mem_ctrls.dram.rank1.pwrStateTime::IDLE    154142000                       # Time in different power states
system.mem_ctrls.dram.rank1.pwrStateTime::REF    178100000                       # Time in different power states
system.mem_ctrls.dram.rank1.pwrStateTime::SREF            0                       # Time in different power states
system.mem_ctrls.dram.rank1.pwrStateTime::PRE_PDN            0                       # Time in different power states
system.mem_ctrls.dram.rank1.pwrStateTime::ACT   5005166500                       # Time in different power states
system.mem_ctrls.dram.rank1.pwrStateTime::ACT_PDN            0                       # Time in different power states
system.mem_ctrls.power_state.pwrStateResidencyTicks::UNDEFINED   5337408500                       # Cumulative time (in ticks) in various power states
system.membus.trans_dist::ReadResp              10199                       # Transaction distribution
system.membus.trans_dist::WritebackDirty        27394                       # Transaction distribution
system.membus.trans_dist::CleanEvict             2870                       # Transaction distribution
system.membus.trans_dist::ReadExReq             28793                       # Transaction distribution
system.membus.trans_dist::ReadExResp            28793                       # Transaction distribution
system.membus.trans_dist::ReadSharedReq         10199                       # Transaction distribution
system.membus.pkt_count_system.l2.mem_side_port::system.mem_ctrls.port       108248                       # Packet count per connected requestor and responder (bytes)
system.membus.pkt_count_system.l2.mem_side_port::total       108248                       # Packet count per connected requestor and responder (bytes)
system.membus.pkt_count::total                 108248                       # Packet count per connected requestor and responder (bytes)
system.membus.pkt_size_system.l2.mem_side_port::system.mem_ctrls.port      4248704                       # Cumulative packet size per connected requestor and responder (bytes)
system.membus.pkt_size_system.l2.mem_side_port::total      4248704                       # Cumulative packet size per connected requestor and responder (bytes)
system.membus.pkt_size::total                 4248704                       # Cumulative packet size per connected requestor and responder (bytes)
system.membus.snoops                                0                       # Total snoops (count)
system.membus.snoopTraffic                          0                       # Total snoop traffic (bytes)
system.membus.snoop_fanout::samples             38992                       # Request fanout histogram
system.membus.snoop_fanout::mean                    0                       # Request fanout histogram
system.membus.snoop_fanout::stdev                   0                       # Request fanout histogram
system.membus.snoop_fanout::underflows              0      0.00%      0.00% # Request fanout histogram
system.membus.snoop_fanout::0                   38992    100.00%    100.00% # Request fanout histogram
system.membus.snoop_fanout::1                       0      0.00%    100.00% # Request fanout histogram
system.membus.snoop_fanout::overflows               0      0.00%    100.00% # Request fanout histogram
system.membus.snoop_fanout::min_value               0                       # Request fanout histogram
system.membus.snoop_fanout::max_value               0                       # Request fanout histogram
system.membus.snoop_fanout::total               38992                       # Request fanout histogram
system.membus.power_state.pwrStateResidencyTicks::UNDEFINED   5337408500                       # Cumulative time (in ticks) in various power states
system.membus.reqLayer2.occupancy            44708000                       # Layer occupancy (ticks)
system.membus.reqLayer2.utilization               0.8                       # Layer utilization (%)
system.membus.respLayer1.occupancy           48740000                       # Layer occupancy (ticks)
system.membus.respLayer1.utilization              0.9                       # Layer utilization (%)
system.tol2bus.trans_dist::ReadResp             29400                       # Transaction distribution
system.tol2bus.trans_dist::WritebackDirty        67902                       # Transaction distribution
system.tol2bus.trans_dist::WritebackClean        16713                       # Transaction distribution
system.tol2bus.trans_dist::CleanEvict            7098                       # Transaction distribution
system.tol2bus.trans_dist::UpgradeReq               1                       # Transaction distribution
system.tol2bus.trans_dist::UpgradeResp              1                       # Transaction distribution
system.tol2bus.trans_dist::ReadExReq            32489                       # Transaction distribution
system.tol2bus.trans_dist::ReadExResp           32489                       # Transaction distribution
system.tol2bus.trans_dist::ReadCleanReq         17222                       # Transaction distribution
system.tol2bus.trans_dist::ReadSharedReq        12178                       # Transaction distribution
system.tol2bus.pkt_count_system.cpu.icache.mem_side_port::system.l2.cpu_side_port        51156                       # Packet count per connected requestor and responder (bytes)
system.tol2bus.pkt_count_system.cpu.dcache.mem_side_port::system.l2.cpu_side_port       133491                       # Packet count per connected requestor and responder (bytes)
system.tol2bus.pkt_count::total                184647                       # Packet count per connected requestor and responder (bytes)
system.tol2bus.pkt_size_system.cpu.icache.mem_side_port::system.l2.cpu_side_port      2171776                       # Cumulative packet size per connected requestor and responder (bytes)
system.tol2bus.pkt_size_system.cpu.dcache.mem_side_port::system.l2.cpu_side_port      5451200                       # Cumulative packet size per connected requestor and responder (bytes)
system.tol2bus.pkt_size::total                7622976                       # Cumulative packet size per connected requestor and responder (bytes)
system.tol2bus.snoops                           30846                       # Total snoops (count)
system.tol2bus.snoopTraffic                   1753280                       # Total snoop traffic (bytes)
system.tol2bus.snoop_fanout::samples            92735                       # Request fanout histogram
system.tol2bus.snoop_fanout::mean            0.006535                       # Request fanout histogram
system.tol2bus.snoop_fanout::stdev           0.080841                       # Request fanout histogram
system.tol2bus.snoop_fanout::underflows             0      0.00%      0.00% # Request fanout histogram
system.tol2bus.snoop_fanout::0                  92131     99.35%     99.35% # Request fanout histogram
system.tol2bus.snoop_fanout::1                    602      0.65%    100.00% # Request fanout histogram
system.tol2bus.snoop_fanout::2                      2      0.00%    100.00% # Request fanout histogram
system.tol2bus.snoop_fanout::3                      0      0.00%    100.00% # Request fanout histogram
system.tol2bus.snoop_fanout::4                      0      0.00%    100.00% # Request fanout histogram
system.tol2bus.snoop_fanout::overflows              0      0.00%    100.00% # Request fanout histogram
system.tol2bus.snoop_fanout::min_value              0                       # Request fanout histogram
system.tol2bus.snoop_fanout::max_value              2                       # Request fanout histogram
system.tol2bus.snoop_fanout::total              92735                       # Request fanout histogram
system.tol2bus.power_state.pwrStateResidencyTicks::UNDEFINED   5337408500                       # Cumulative time (in ticks) in various power states
system.tol2bus.reqLayer0.occupancy          118600000                       # Layer occupancy (ticks)
system.tol2bus.reqLayer0.utilization              2.2                       # Layer utilization (%)
system.tol2bus.respLayer0.occupancy          25833000                       # Layer occupancy (ticks)
system.tol2bus.respLayer0.utilization             0.5                       # Layer utilization (%)
system.tol2bus.respLayer1.occupancy          67001000                       # Layer occupancy (ticks)
system.tol2bus.respLayer1.utilization             1.3                       # Layer utilization (%)
system.voltage_domain.voltage                       1                       # Voltage in Volts

---------- End Simulation Statistics   ----------
