
---------- Begin Simulation Statistics ----------
final_tick                                51310304500                       # Number of ticks from beginning of simulation (restored from checkpoints and never reset)
host_inst_rate                                  77387                       # Simulator instruction rate (inst/s)
host_mem_usage                                 717216                       # Number of bytes of host memory used
host_op_rate                                   128478                       # Simulator op (including micro ops) rate (op/s)
host_seconds                                  1292.20                       # Real time elapsed on the host
host_tick_rate                               39707619                       # Simulator tick rate (ticks/s)
sim_freq                                 1000000000000                       # Frequency of simulated ticks
sim_insts                                   100000001                       # Number of instructions simulated
sim_ops                                     166019455                       # Number of ops (including micro ops) simulated
sim_seconds                                  0.051310                       # Number of seconds simulated
sim_ticks                                 51310304500                       # Number of ticks simulated
system.cpu.cc_regfile_reads                  33481549                       # number of cc regfile reads
system.cpu.cc_regfile_writes                 73562140                       # number of cc regfile writes
system.cpu.committedInsts                   100000001                       # Number of Instructions Simulated
system.cpu.committedOps                     166019455                       # Number of Ops (including micro ops) Simulated
system.cpu.cpi                               1.026206                       # CPI: Cycles Per Instruction
system.cpu.cpi_total                         1.026206                       # CPI: Total CPI of All Threads
system.cpu.fp_regfile_reads                  47853199                       # number of floating regfile reads
system.cpu.fp_regfile_writes                 29625842                       # number of floating regfile writes
system.cpu.idleCycles                          189962                       # Total number of cycles that the CPU has spent unscheduled due to idling
system.cpu.iew.branchMispredicts                68082                       # Number of branch mispredicts detected at execute
system.cpu.iew.exec_branches                  5834427                       # Number of branches executed
system.cpu.iew.exec_nop                             0                       # number of nop insts executed
system.cpu.iew.exec_rate                     1.900083                       # Inst execution rate
system.cpu.iew.exec_refs                     55160380                       # number of memory reference insts executed
system.cpu.iew.exec_stores                   16930003                       # Number of stores executed
system.cpu.iew.exec_swp                             0                       # number of swp insts executed
system.cpu.iew.iewBlockCycles                18547342                       # Number of cycles IEW is blocking
system.cpu.iew.iewDispLoadInsts              38405807                       # Number of dispatched load instructions
system.cpu.iew.iewDispNonSpecInsts                246                       # Number of dispatched non-speculative instructions
system.cpu.iew.iewDispSquashedInsts              2242                       # Number of squashed instructions skipped by dispatch
system.cpu.iew.iewDispStoreInsts             17713875                       # Number of dispatched store instructions
system.cpu.iew.iewDispatchedInsts           196928730                       # Number of instructions dispatched to IQ
system.cpu.iew.iewExecLoadInsts              38230377                       # Number of load instructions executed
system.cpu.iew.iewExecSquashedInsts            178083                       # Number of squashed instructions skipped in execute
system.cpu.iew.iewExecutedInsts             194987698                       # Number of executed instructions
system.cpu.iew.iewIQFullEvents                  55337                       # Number of times the IQ has become full, causing a stall
system.cpu.iew.iewIdleCycles                        0                       # Number of cycles IEW is idle
system.cpu.iew.iewLSQFullEvents               3424118                       # Number of times the LSQ has become full, causing a stall
system.cpu.iew.iewSquashCycles                 337275                       # Number of cycles IEW is squashing
system.cpu.iew.iewUnblockCycles               3455051                       # Number of cycles IEW is unblocking
system.cpu.iew.memOrderViolationEvents            503                       # Number of memory order violations
system.cpu.iew.predictedNotTakenIncorrect        16300                       # Number of branches that were predicted not taken incorrectly
system.cpu.iew.predictedTakenIncorrect          51782                       # Number of branches that were predicted taken incorrectly
system.cpu.iew.wb_consumers                 257543642                       # num instructions consuming a value
system.cpu.iew.wb_count                     191332193                       # cumulative count of insts written-back
system.cpu.iew.wb_fanout                     0.570736                       # average fanout of values written-back
system.cpu.iew.wb_producers                 146989484                       # num instructions producing a value
system.cpu.iew.wb_rate                       1.864462                       # insts written-back per cycle
system.cpu.iew.wb_sent                      194714400                       # cumulative count of insts sent to commit
system.cpu.int_regfile_reads                321717286                       # number of integer regfile reads
system.cpu.int_regfile_writes               144657235                       # number of integer regfile writes
system.cpu.ipc                               0.974463                       # IPC: Instructions Per Cycle
system.cpu.ipc_total                         0.974463                       # IPC: Total IPC of All Threads
system.cpu.iq.FU_type_0::No_OpClass           4239593      2.17%      2.17% # Type of FU issued
system.cpu.iq.FU_type_0::IntAlu             111547009     57.16%     59.33% # Type of FU issued
system.cpu.iq.FU_type_0::IntMult              6328531      3.24%     62.57% # Type of FU issued
system.cpu.iq.FU_type_0::IntDiv                100777      0.05%     62.62% # Type of FU issued
system.cpu.iq.FU_type_0::FloatAdd             1449695      0.74%     63.36% # Type of FU issued
system.cpu.iq.FU_type_0::FloatCmp                   0      0.00%     63.36% # Type of FU issued
system.cpu.iq.FU_type_0::FloatCvt                  32      0.00%     63.36% # Type of FU issued
system.cpu.iq.FU_type_0::FloatMult                  0      0.00%     63.36% # Type of FU issued
system.cpu.iq.FU_type_0::FloatMultAcc               0      0.00%     63.36% # Type of FU issued
system.cpu.iq.FU_type_0::FloatDiv                   0      0.00%     63.36% # Type of FU issued
system.cpu.iq.FU_type_0::FloatMisc                  0      0.00%     63.36% # Type of FU issued
system.cpu.iq.FU_type_0::FloatSqrt                  0      0.00%     63.36% # Type of FU issued
system.cpu.iq.FU_type_0::SimdAdd                 3200      0.00%     63.37% # Type of FU issued
system.cpu.iq.FU_type_0::SimdAddAcc                 0      0.00%     63.37% # Type of FU issued
system.cpu.iq.FU_type_0::SimdAlu              2863263      1.47%     64.83% # Type of FU issued
system.cpu.iq.FU_type_0::SimdCmp                   66      0.00%     64.83% # Type of FU issued
system.cpu.iq.FU_type_0::SimdCvt                 8063      0.00%     64.84% # Type of FU issued
system.cpu.iq.FU_type_0::SimdMisc             2869715      1.47%     66.31% # Type of FU issued
system.cpu.iq.FU_type_0::SimdMult                 248      0.00%     66.31% # Type of FU issued
system.cpu.iq.FU_type_0::SimdMultAcc                0      0.00%     66.31% # Type of FU issued
system.cpu.iq.FU_type_0::SimdShift               2699      0.00%     66.31% # Type of FU issued
system.cpu.iq.FU_type_0::SimdShiftAcc               0      0.00%     66.31% # Type of FU issued
system.cpu.iq.FU_type_0::SimdDiv                    0      0.00%     66.31% # Type of FU issued
system.cpu.iq.FU_type_0::SimdSqrt                   0      0.00%     66.31% # Type of FU issued
system.cpu.iq.FU_type_0::SimdFloatAdd         4781095      2.45%     68.76% # Type of FU issued
system.cpu.iq.FU_type_0::SimdFloatAlu               0      0.00%     68.76% # Type of FU issued
system.cpu.iq.FU_type_0::SimdFloatCmp               0      0.00%     68.76% # Type of FU issued
system.cpu.iq.FU_type_0::SimdFloatCvt         2386445      1.22%     69.98% # Type of FU issued
system.cpu.iq.FU_type_0::SimdFloatDiv              18      0.00%     69.98% # Type of FU issued
system.cpu.iq.FU_type_0::SimdFloatMisc              0      0.00%     69.98% # Type of FU issued
system.cpu.iq.FU_type_0::SimdFloatMult        3347069      1.71%     71.70% # Type of FU issued
system.cpu.iq.FU_type_0::SimdFloatMultAcc            0      0.00%     71.70% # Type of FU issued
system.cpu.iq.FU_type_0::SimdFloatSqrt              0      0.00%     71.70% # Type of FU issued
system.cpu.iq.FU_type_0::SimdReduceAdd              0      0.00%     71.70% # Type of FU issued
system.cpu.iq.FU_type_0::SimdReduceAlu              0      0.00%     71.70% # Type of FU issued
system.cpu.iq.FU_type_0::SimdReduceCmp              0      0.00%     71.70% # Type of FU issued
system.cpu.iq.FU_type_0::SimdFloatReduceAdd            0      0.00%     71.70% # Type of FU issued
system.cpu.iq.FU_type_0::SimdFloatReduceCmp            0      0.00%     71.70% # Type of FU issued
system.cpu.iq.FU_type_0::SimdAes                    0      0.00%     71.70% # Type of FU issued
system.cpu.iq.FU_type_0::SimdAesMix                 0      0.00%     71.70% # Type of FU issued
system.cpu.iq.FU_type_0::SimdSha1Hash               0      0.00%     71.70% # Type of FU issued
system.cpu.iq.FU_type_0::SimdSha1Hash2              0      0.00%     71.70% # Type of FU issued
system.cpu.iq.FU_type_0::SimdSha256Hash             0      0.00%     71.70% # Type of FU issued
system.cpu.iq.FU_type_0::SimdSha256Hash2            0      0.00%     71.70% # Type of FU issued
system.cpu.iq.FU_type_0::SimdShaSigma2              0      0.00%     71.70% # Type of FU issued
system.cpu.iq.FU_type_0::SimdShaSigma3              0      0.00%     71.70% # Type of FU issued
system.cpu.iq.FU_type_0::SimdPredAlu                0      0.00%     71.70% # Type of FU issued
system.cpu.iq.FU_type_0::MemRead             26577824     13.62%     85.31% # Type of FU issued
system.cpu.iq.FU_type_0::MemWrite            10712457      5.49%     90.80% # Type of FU issued
system.cpu.iq.FU_type_0::FloatMemRead        11697651      5.99%     96.80% # Type of FU issued
system.cpu.iq.FU_type_0::FloatMemWrite        6250334      3.20%    100.00% # Type of FU issued
system.cpu.iq.FU_type_0::IprAccess                  0      0.00%    100.00% # Type of FU issued
system.cpu.iq.FU_type_0::InstPrefetch               0      0.00%    100.00% # Type of FU issued
system.cpu.iq.FU_type_0::total              195165784                       # Type of FU issued
system.cpu.iq.fp_alu_accesses                39480441                       # Number of floating point alu accesses
system.cpu.iq.fp_inst_queue_reads            77051924                       # Number of floating instruction queue reads
system.cpu.iq.fp_inst_queue_wakeup_accesses     37129943                       # Number of floating instruction queue wakeup accesses
system.cpu.iq.fp_inst_queue_writes           50184802                       # Number of floating instruction queue writes
system.cpu.iq.fu_busy_cnt                     3744147                       # FU busy when requested
system.cpu.iq.fu_busy_rate                   0.019184                       # FU busy rate (busy events/executed inst)
system.cpu.iq.fu_full::No_OpClass                   0      0.00%      0.00% # attempts to use FU when none available
system.cpu.iq.fu_full::IntAlu                  590282     15.77%     15.77% # attempts to use FU when none available
system.cpu.iq.fu_full::IntMult                      0      0.00%     15.77% # attempts to use FU when none available
system.cpu.iq.fu_full::IntDiv                       0      0.00%     15.77% # attempts to use FU when none available
system.cpu.iq.fu_full::FloatAdd                     0      0.00%     15.77% # attempts to use FU when none available
system.cpu.iq.fu_full::FloatCmp                     0      0.00%     15.77% # attempts to use FU when none available
system.cpu.iq.fu_full::FloatCvt                     0      0.00%     15.77% # attempts to use FU when none available
system.cpu.iq.fu_full::FloatMult                    0      0.00%     15.77% # attempts to use FU when none available
system.cpu.iq.fu_full::FloatMultAcc                 0      0.00%     15.77% # attempts to use FU when none available
system.cpu.iq.fu_full::FloatDiv                     0      0.00%     15.77% # attempts to use FU when none available
system.cpu.iq.fu_full::FloatMisc                    0      0.00%     15.77% # attempts to use FU when none available
system.cpu.iq.fu_full::FloatSqrt                    0      0.00%     15.77% # attempts to use FU when none available
system.cpu.iq.fu_full::SimdAdd                      0      0.00%     15.77% # attempts to use FU when none available
system.cpu.iq.fu_full::SimdAddAcc                   0      0.00%     15.77% # attempts to use FU when none available
system.cpu.iq.fu_full::SimdAlu                    126      0.00%     15.77% # attempts to use FU when none available
system.cpu.iq.fu_full::SimdCmp                      0      0.00%     15.77% # attempts to use FU when none available
system.cpu.iq.fu_full::SimdCvt                     64      0.00%     15.77% # attempts to use FU when none available
system.cpu.iq.fu_full::SimdMisc                    24      0.00%     15.77% # attempts to use FU when none available
system.cpu.iq.fu_full::SimdMult                     0      0.00%     15.77% # attempts to use FU when none available
system.cpu.iq.fu_full::SimdMultAcc                  0      0.00%     15.77% # attempts to use FU when none available
system.cpu.iq.fu_full::SimdShift                   37      0.00%     15.77% # attempts to use FU when none available
system.cpu.iq.fu_full::SimdShiftAcc                 0      0.00%     15.77% # attempts to use FU when none available
system.cpu.iq.fu_full::SimdDiv                      0      0.00%     15.77% # attempts to use FU when none available
system.cpu.iq.fu_full::SimdSqrt                     0      0.00%     15.77% # attempts to use FU when none available
system.cpu.iq.fu_full::SimdFloatAdd                22      0.00%     15.77% # attempts to use FU when none available
system.cpu.iq.fu_full::SimdFloatAlu                 0      0.00%     15.77% # attempts to use FU when none available
system.cpu.iq.fu_full::SimdFloatCmp                 0      0.00%     15.77% # attempts to use FU when none available
system.cpu.iq.fu_full::SimdFloatCvt                 0      0.00%     15.77% # attempts to use FU when none available
system.cpu.iq.fu_full::SimdFloatDiv                 0      0.00%     15.77% # attempts to use FU when none available
system.cpu.iq.fu_full::SimdFloatMisc                0      0.00%     15.77% # attempts to use FU when none available
system.cpu.iq.fu_full::SimdFloatMult                4      0.00%     15.77% # attempts to use FU when none available
system.cpu.iq.fu_full::SimdFloatMultAcc             0      0.00%     15.77% # attempts to use FU when none available
system.cpu.iq.fu_full::SimdFloatSqrt                0      0.00%     15.77% # attempts to use FU when none available
system.cpu.iq.fu_full::SimdReduceAdd                0      0.00%     15.77% # attempts to use FU when none available
system.cpu.iq.fu_full::SimdReduceAlu                0      0.00%     15.77% # attempts to use FU when none available
system.cpu.iq.fu_full::SimdReduceCmp                0      0.00%     15.77% # attempts to use FU when none available
system.cpu.iq.fu_full::SimdFloatReduceAdd            0      0.00%     15.77% # attempts to use FU when none available
system.cpu.iq.fu_full::SimdFloatReduceCmp            0      0.00%     15.77% # attempts to use FU when none available
system.cpu.iq.fu_full::SimdAes                      0      0.00%     15.77% # attempts to use FU when none available
system.cpu.iq.fu_full::SimdAesMix                   0      0.00%     15.77% # attempts to use FU when none available
system.cpu.iq.fu_full::SimdSha1Hash                 0      0.00%     15.77% # attempts to use FU when none available
system.cpu.iq.fu_full::SimdSha1Hash2                0      0.00%     15.77% # attempts to use FU when none available
system.cpu.iq.fu_full::SimdSha256Hash               0      0.00%     15.77% # attempts to use FU when none available
system.cpu.iq.fu_full::SimdSha256Hash2              0      0.00%     15.77% # attempts to use FU when none available
system.cpu.iq.fu_full::SimdShaSigma2                0      0.00%     15.77% # attempts to use FU when none available
system.cpu.iq.fu_full::SimdShaSigma3                0      0.00%     15.77% # attempts to use FU when none available
system.cpu.iq.fu_full::SimdPredAlu                  0      0.00%     15.77% # attempts to use FU when none available
system.cpu.iq.fu_full::MemRead                 415380     11.09%     26.87% # attempts to use FU when none available
system.cpu.iq.fu_full::MemWrite                822287     21.96%     48.83% # attempts to use FU when none available
system.cpu.iq.fu_full::FloatMemRead           1672317     44.66%     93.49% # attempts to use FU when none available
system.cpu.iq.fu_full::FloatMemWrite           243604      6.51%    100.00% # attempts to use FU when none available
system.cpu.iq.fu_full::IprAccess                    0      0.00%    100.00% # attempts to use FU when none available
system.cpu.iq.fu_full::InstPrefetch                 0      0.00%    100.00% # attempts to use FU when none available
system.cpu.iq.int_alu_accesses              155189897                       # Number of integer alu accesses
system.cpu.iq.int_inst_queue_reads          419476272                       # Number of integer instruction queue reads
system.cpu.iq.int_inst_queue_wakeup_accesses    154202250                       # Number of integer instruction queue wakeup accesses
system.cpu.iq.int_inst_queue_writes         177653602                       # Number of integer instruction queue writes
system.cpu.iq.iqInstsAdded                  196872611                       # Number of instructions added to the IQ (excludes non-spec)
system.cpu.iq.iqInstsIssued                 195165784                       # Number of instructions issued
system.cpu.iq.iqNonSpecInstsAdded               56119                       # Number of non-speculative instructions added to the IQ
system.cpu.iq.iqSquashedInstsExamined        30909197                       # Number of squashed instructions iterated over during squash; mainly for profiling
system.cpu.iq.iqSquashedInstsIssued             21836                       # Number of squashed instructions issued
system.cpu.iq.iqSquashedNonSpecRemoved          50730                       # Number of squashed non-spec instructions that were removed
system.cpu.iq.iqSquashedOperandsExamined      7723170                       # Number of squashed operands that are examined and possibly removed from graph
system.cpu.iq.issued_per_cycle::samples     102430648                       # Number of insts issued each cycle
system.cpu.iq.issued_per_cycle::mean         1.905346                       # Number of insts issued each cycle
system.cpu.iq.issued_per_cycle::stdev        2.153306                       # Number of insts issued each cycle
system.cpu.iq.issued_per_cycle::underflows            0      0.00%      0.00% # Number of insts issued each cycle
system.cpu.iq.issued_per_cycle::0            43950963     42.91%     42.91% # Number of insts issued each cycle
system.cpu.iq.issued_per_cycle::1             9687213      9.46%     52.37% # Number of insts issued each cycle
system.cpu.iq.issued_per_cycle::2            13134110     12.82%     65.19% # Number of insts issued each cycle
system.cpu.iq.issued_per_cycle::3            11337857     11.07%     76.26% # Number of insts issued each cycle
system.cpu.iq.issued_per_cycle::4            10162460      9.92%     86.18% # Number of insts issued each cycle
system.cpu.iq.issued_per_cycle::5             6176074      6.03%     92.21% # Number of insts issued each cycle
system.cpu.iq.issued_per_cycle::6             3763690      3.67%     95.88% # Number of insts issued each cycle
system.cpu.iq.issued_per_cycle::7             2661818      2.60%     98.48% # Number of insts issued each cycle
system.cpu.iq.issued_per_cycle::8             1556463      1.52%    100.00% # Number of insts issued each cycle
system.cpu.iq.issued_per_cycle::overflows            0      0.00%    100.00% # Number of insts issued each cycle
system.cpu.iq.issued_per_cycle::min_value            0                       # Number of insts issued each cycle
system.cpu.iq.issued_per_cycle::max_value            8                       # Number of insts issued each cycle
system.cpu.iq.issued_per_cycle::total       102430648                       # Number of insts issued each cycle
system.cpu.iq.rate                           1.901819                       # Inst issue rate
system.cpu.iq.vec_alu_accesses                      0                       # Number of vector alu accesses
system.cpu.iq.vec_inst_queue_reads                  0                       # Number of vector instruction queue reads
system.cpu.iq.vec_inst_queue_wakeup_accesses            0                       # Number of vector instruction queue wakeup accesses
system.cpu.iq.vec_inst_queue_writes                 0                       # Number of vector instruction queue writes
system.cpu.memDep0.conflictingLoads           1891256                       # Number of conflicting loads.
system.cpu.memDep0.conflictingStores          1536438                       # Number of conflicting stores.
system.cpu.memDep0.insertedLoads             38405807                       # Number of loads inserted to the mem dependence unit.
system.cpu.memDep0.insertedStores            17713875                       # Number of stores inserted to the mem dependence unit.
system.cpu.misc_regfile_reads                70586809                       # number of misc regfile reads
system.cpu.misc_regfile_writes                     18                       # number of misc regfile writes
system.cpu.numCycles                        102620610                       # number of cpu cycles simulated
system.cpu.numWorkItemsCompleted                    0                       # number of work items this cpu completed
system.cpu.numWorkItemsStarted                      0                       # number of work items this cpu started
system.cpu.timesIdled                            2183                       # Number of times that the entire CPU went into an idle state and unscheduled itself
system.cpu.workload.numSyscalls                   121                       # Number of system calls
system.membus.snoop_filter.hit_multi_requests            0                       # Number of requests hitting in the snoop filter with multiple (>1) holders of the requested data.
system.membus.snoop_filter.hit_multi_snoops            0                       # Number of snoops hitting in the snoop filter with multiple (>1) holders of the requested data.
system.membus.snoop_filter.hit_single_requests       379083                       # Number of requests hitting in the snoop filter with a single holder of the requested data.
system.membus.snoop_filter.hit_single_snoops            0                       # Number of snoops hitting in the snoop filter with a single holder of the requested data.
system.membus.snoop_filter.tot_requests        766875                       # Total number of requests made to the snoop filter.
system.membus.snoop_filter.tot_snoops               0                       # Total number of snoops made to the snoop filter.
system.tol2bus.snoop_filter.hit_multi_requests           15                       # Number of requests hitting in the snoop filter with multiple (>1) holders of the requested data.
system.tol2bus.snoop_filter.hit_multi_snoops            0                       # Number of snoops hitting in the snoop filter with multiple (>1) holders of the requested data.
system.tol2bus.snoop_filter.hit_single_requests       426297                       # Number of requests hitting in the snoop filter with a single holder of the requested data.
system.tol2bus.snoop_filter.hit_single_snoops         1237                       # Number of snoops hitting in the snoop filter with a single holder of the requested data.
system.tol2bus.snoop_filter.tot_requests       853621                       # Total number of requests made to the snoop filter.
system.tol2bus.snoop_filter.tot_snoops           1237                       # Total number of snoops made to the snoop filter.
system.clk_domain.clock                           250                       # Clock period in ticks
system.cpu.branchPred.lookups                 6419615                       # Number of BP lookups
system.cpu.branchPred.condPredicted           4630677                       # Number of conditional branches predicted
system.cpu.branchPred.condIncorrect             57980                       # Number of conditional branches incorrect
system.cpu.branchPred.BTBLookups              3437367                       # Number of BTB lookups
system.cpu.branchPred.BTBHits                 3434168                       # Number of BTB hits
system.cpu.branchPred.BTBHitPct             99.906935                       # BTB Hit Percentage
system.cpu.branchPred.RASUsed                  598965                       # Number of times the RAS was used to get a target.
system.cpu.branchPred.RASIncorrect                 21                       # Number of incorrect RAS predictions.
system.cpu.branchPred.indirectLookups          583693                       # Number of indirect predictor lookups.
system.cpu.branchPred.indirectHits             574339                       # Number of indirect target hits.
system.cpu.branchPred.indirectMisses             9354                       # Number of indirect misses.
system.cpu.branchPred.indirectMispredicted         1313                       # Number of mispredicted indirect branches.
system.cpu.commit.commitSquashedInsts        25418850                       # The number of squashed insts skipped by commit
system.cpu.commit.commitNonSpecStalls            5389                       # The number of times commit has been forced to stall to communicate backwards
system.cpu.commit.branchMispredicts             57294                       # The number of times a branch was mispredicted
system.cpu.commit.numCommittedDist::samples     98999556                       # Number of insts commited each cycle
system.cpu.commit.numCommittedDist::mean     1.676972                       # Number of insts commited each cycle
system.cpu.commit.numCommittedDist::stdev     2.570765                       # Number of insts commited each cycle
system.cpu.commit.numCommittedDist::underflows            0      0.00%      0.00% # Number of insts commited each cycle
system.cpu.commit.numCommittedDist::0        49777488     50.28%     50.28% # Number of insts commited each cycle
system.cpu.commit.numCommittedDist::1        19708835     19.91%     70.19% # Number of insts commited each cycle
system.cpu.commit.numCommittedDist::2         8553933      8.64%     78.83% # Number of insts commited each cycle
system.cpu.commit.numCommittedDist::3         3168096      3.20%     82.03% # Number of insts commited each cycle
system.cpu.commit.numCommittedDist::4         3146895      3.18%     85.21% # Number of insts commited each cycle
system.cpu.commit.numCommittedDist::5         1824995      1.84%     87.05% # Number of insts commited each cycle
system.cpu.commit.numCommittedDist::6         1180776      1.19%     88.24% # Number of insts commited each cycle
system.cpu.commit.numCommittedDist::7         2207049      2.23%     90.47% # Number of insts commited each cycle
system.cpu.commit.numCommittedDist::8         9431489      9.53%    100.00% # Number of insts commited each cycle
system.cpu.commit.numCommittedDist::overflows            0      0.00%    100.00% # Number of insts commited each cycle
system.cpu.commit.numCommittedDist::min_value            0                       # Number of insts commited each cycle
system.cpu.commit.numCommittedDist::max_value            8                       # Number of insts commited each cycle
system.cpu.commit.numCommittedDist::total     98999556                       # Number of insts commited each cycle
system.cpu.commit.instsCommitted            100000001                       # Number of instructions committed
system.cpu.commit.opsCommitted              166019455                       # Number of ops (including micro ops) committed
system.cpu.commit.memRefs                    39264133                       # Number of memory references committed
system.cpu.commit.loads                      30740931                       # Number of loads committed
system.cpu.commit.amos                              0                       # Number of atomic instructions committed
system.cpu.commit.membars                         176                       # Number of memory barriers committed
system.cpu.commit.branches                    4827028                       # Number of branches committed
system.cpu.commit.vector                            0                       # Number of committed Vector instructions.
system.cpu.commit.floating                   26165588                       # Number of committed floating point instructions.
system.cpu.commit.integer                   148225635                       # Number of committed integer instructions.
system.cpu.commit.functionCalls                531272                       # Number of function calls committed.
system.cpu.commit.committedInstType_0::No_OpClass      1046605      0.63%      0.63% # Class of committed instruction
system.cpu.commit.committedInstType_0::IntAlu    101615079     61.21%     61.84% # Class of committed instruction
system.cpu.commit.committedInstType_0::IntMult      6312256      3.80%     65.64% # Class of committed instruction
system.cpu.commit.committedInstType_0::IntDiv        97655      0.06%     65.70% # Class of committed instruction
system.cpu.commit.committedInstType_0::FloatAdd      1445015      0.87%     66.57% # Class of committed instruction
system.cpu.commit.committedInstType_0::FloatCmp            0      0.00%     66.57% # Class of committed instruction
system.cpu.commit.committedInstType_0::FloatCvt           32      0.00%     66.57% # Class of committed instruction
system.cpu.commit.committedInstType_0::FloatMult            0      0.00%     66.57% # Class of committed instruction
system.cpu.commit.committedInstType_0::FloatMultAcc            0      0.00%     66.57% # Class of committed instruction
system.cpu.commit.committedInstType_0::FloatDiv            0      0.00%     66.57% # Class of committed instruction
system.cpu.commit.committedInstType_0::FloatMisc            0      0.00%     66.57% # Class of committed instruction
system.cpu.commit.committedInstType_0::FloatSqrt            0      0.00%     66.57% # Class of committed instruction
system.cpu.commit.committedInstType_0::SimdAdd         2294      0.00%     66.57% # Class of committed instruction
system.cpu.commit.committedInstType_0::SimdAddAcc            0      0.00%     66.57% # Class of committed instruction
system.cpu.commit.committedInstType_0::SimdAlu      2855490      1.72%     68.29% # Class of committed instruction
system.cpu.commit.committedInstType_0::SimdCmp           66      0.00%     68.29% # Class of committed instruction
system.cpu.commit.committedInstType_0::SimdCvt         5352      0.00%     68.29% # Class of committed instruction
system.cpu.commit.committedInstType_0::SimdMisc      2865770      1.73%     70.02% # Class of committed instruction
system.cpu.commit.committedInstType_0::SimdMult          248      0.00%     70.02% # Class of committed instruction
system.cpu.commit.committedInstType_0::SimdMultAcc            0      0.00%     70.02% # Class of committed instruction
system.cpu.commit.committedInstType_0::SimdShift          900      0.00%     70.02% # Class of committed instruction
system.cpu.commit.committedInstType_0::SimdShiftAcc            0      0.00%     70.02% # Class of committed instruction
system.cpu.commit.committedInstType_0::SimdDiv            0      0.00%     70.02% # Class of committed instruction
system.cpu.commit.committedInstType_0::SimdSqrt            0      0.00%     70.02% # Class of committed instruction
system.cpu.commit.committedInstType_0::SimdFloatAdd      4779154      2.88%     72.90% # Class of committed instruction
system.cpu.commit.committedInstType_0::SimdFloatAlu            0      0.00%     72.90% # Class of committed instruction
system.cpu.commit.committedInstType_0::SimdFloatCmp            0      0.00%     72.90% # Class of committed instruction
system.cpu.commit.committedInstType_0::SimdFloatCvt      2384878      1.44%     74.34% # Class of committed instruction
system.cpu.commit.committedInstType_0::SimdFloatDiv           15      0.00%     74.34% # Class of committed instruction
system.cpu.commit.committedInstType_0::SimdFloatMisc            0      0.00%     74.34% # Class of committed instruction
system.cpu.commit.committedInstType_0::SimdFloatMult      3344513      2.01%     76.35% # Class of committed instruction
system.cpu.commit.committedInstType_0::SimdFloatMultAcc            0      0.00%     76.35% # Class of committed instruction
system.cpu.commit.committedInstType_0::SimdFloatSqrt            0      0.00%     76.35% # Class of committed instruction
system.cpu.commit.committedInstType_0::SimdReduceAdd            0      0.00%     76.35% # Class of committed instruction
system.cpu.commit.committedInstType_0::SimdReduceAlu            0      0.00%     76.35% # Class of committed instruction
system.cpu.commit.committedInstType_0::SimdReduceCmp            0      0.00%     76.35% # Class of committed instruction
system.cpu.commit.committedInstType_0::SimdFloatReduceAdd            0      0.00%     76.35% # Class of committed instruction
system.cpu.commit.committedInstType_0::SimdFloatReduceCmp            0      0.00%     76.35% # Class of committed instruction
system.cpu.commit.committedInstType_0::SimdAes            0      0.00%     76.35% # Class of committed instruction
system.cpu.commit.committedInstType_0::SimdAesMix            0      0.00%     76.35% # Class of committed instruction
system.cpu.commit.committedInstType_0::SimdSha1Hash            0      0.00%     76.35% # Class of committed instruction
system.cpu.commit.committedInstType_0::SimdSha1Hash2            0      0.00%     76.35% # Class of committed instruction
system.cpu.commit.committedInstType_0::SimdSha256Hash            0      0.00%     76.35% # Class of committed instruction
system.cpu.commit.committedInstType_0::SimdSha256Hash2            0      0.00%     76.35% # Class of committed instruction
system.cpu.commit.committedInstType_0::SimdShaSigma2            0      0.00%     76.35% # Class of committed instruction
system.cpu.commit.committedInstType_0::SimdShaSigma3            0      0.00%     76.35% # Class of committed instruction
system.cpu.commit.committedInstType_0::SimdPredAlu            0      0.00%     76.35% # Class of committed instruction
system.cpu.commit.committedInstType_0::MemRead     24849866     14.97%     91.32% # Class of committed instruction
system.cpu.commit.committedInstType_0::MemWrite      7834725      4.72%     96.04% # Class of committed instruction
system.cpu.commit.committedInstType_0::FloatMemRead      5891065      3.55%     99.59% # Class of committed instruction
system.cpu.commit.committedInstType_0::FloatMemWrite       688477      0.41%    100.00% # Class of committed instruction
system.cpu.commit.committedInstType_0::IprAccess            0      0.00%    100.00% # Class of committed instruction
system.cpu.commit.committedInstType_0::InstPrefetch            0      0.00%    100.00% # Class of committed instruction
system.cpu.commit.committedInstType_0::total    166019455                       # Class of committed instruction
system.cpu.commit.commitEligibleSamples       9431489                       # number cycles where commit BW limit reached
system.cpu.dcache.demand_hits::.cpu.data     42660390                       # number of demand (read+write) hits
system.cpu.dcache.demand_hits::total         42660390                       # number of demand (read+write) hits
system.cpu.dcache.overall_hits::.cpu.data     44033076                       # number of overall hits
system.cpu.dcache.overall_hits::total        44033076                       # number of overall hits
system.cpu.dcache.demand_misses::.cpu.data       517055                       # number of demand (read+write) misses
system.cpu.dcache.demand_misses::total         517055                       # number of demand (read+write) misses
system.cpu.dcache.overall_misses::.cpu.data       674142                       # number of overall misses
system.cpu.dcache.overall_misses::total        674142                       # number of overall misses
system.cpu.dcache.demand_miss_latency::.cpu.data  33802856948                       # number of demand (read+write) miss cycles
system.cpu.dcache.demand_miss_latency::total  33802856948                       # number of demand (read+write) miss cycles
system.cpu.dcache.overall_miss_latency::.cpu.data  33802856948                       # number of overall miss cycles
system.cpu.dcache.overall_miss_latency::total  33802856948                       # number of overall miss cycles
system.cpu.dcache.demand_accesses::.cpu.data     43177445                       # number of demand (read+write) accesses
system.cpu.dcache.demand_accesses::total     43177445                       # number of demand (read+write) accesses
system.cpu.dcache.overall_accesses::.cpu.data     44707218                       # number of overall (read+write) accesses
system.cpu.dcache.overall_accesses::total     44707218                       # number of overall (read+write) accesses
system.cpu.dcache.demand_miss_rate::.cpu.data     0.011975                       # miss rate for demand accesses
system.cpu.dcache.demand_miss_rate::total     0.011975                       # miss rate for demand accesses
system.cpu.dcache.overall_miss_rate::.cpu.data     0.015079                       # miss rate for overall accesses
system.cpu.dcache.overall_miss_rate::total     0.015079                       # miss rate for overall accesses
system.cpu.dcache.demand_avg_miss_latency::.cpu.data 65375.747160                       # average overall miss latency
system.cpu.dcache.demand_avg_miss_latency::total 65375.747160                       # average overall miss latency
system.cpu.dcache.overall_avg_miss_latency::.cpu.data 50142.042697                       # average overall miss latency
system.cpu.dcache.overall_avg_miss_latency::total 50142.042697                       # average overall miss latency
system.cpu.dcache.blocked_cycles::no_mshrs       434814                       # number of cycles access was blocked
system.cpu.dcache.blocked_cycles::no_targets          268                       # number of cycles access was blocked
system.cpu.dcache.blocked::no_mshrs              6579                       # number of cycles access was blocked
system.cpu.dcache.blocked::no_targets               3                       # number of cycles access was blocked
system.cpu.dcache.avg_blocked_cycles::no_mshrs    66.091199                       # average number of cycles each access was blocked
system.cpu.dcache.avg_blocked_cycles::no_targets    89.333333                       # average number of cycles each access was blocked
system.cpu.dcache.writebacks::.writebacks       172419                       # number of writebacks
system.cpu.dcache.writebacks::total            172419                       # number of writebacks
system.cpu.dcache.demand_mshr_hits::.cpu.data       150547                       # number of demand (read+write) MSHR hits
system.cpu.dcache.demand_mshr_hits::total       150547                       # number of demand (read+write) MSHR hits
system.cpu.dcache.overall_mshr_hits::.cpu.data       150547                       # number of overall MSHR hits
system.cpu.dcache.overall_mshr_hits::total       150547                       # number of overall MSHR hits
system.cpu.dcache.demand_mshr_misses::.cpu.data       366508                       # number of demand (read+write) MSHR misses
system.cpu.dcache.demand_mshr_misses::total       366508                       # number of demand (read+write) MSHR misses
system.cpu.dcache.overall_mshr_misses::.cpu.data       423402                       # number of overall MSHR misses
system.cpu.dcache.overall_mshr_misses::total       423402                       # number of overall MSHR misses
system.cpu.dcache.demand_mshr_miss_latency::.cpu.data  24216641948                       # number of demand (read+write) MSHR miss cycles
system.cpu.dcache.demand_mshr_miss_latency::total  24216641948                       # number of demand (read+write) MSHR miss cycles
system.cpu.dcache.overall_mshr_miss_latency::.cpu.data  28493374948                       # number of overall MSHR miss cycles
system.cpu.dcache.overall_mshr_miss_latency::total  28493374948                       # number of overall MSHR miss cycles
system.cpu.dcache.demand_mshr_miss_rate::.cpu.data     0.008488                       # mshr miss rate for demand accesses
system.cpu.dcache.demand_mshr_miss_rate::total     0.008488                       # mshr miss rate for demand accesses
system.cpu.dcache.overall_mshr_miss_rate::.cpu.data     0.009471                       # mshr miss rate for overall accesses
system.cpu.dcache.overall_mshr_miss_rate::total     0.009471                       # mshr miss rate for overall accesses
system.cpu.dcache.demand_avg_mshr_miss_latency::.cpu.data 66073.979144                       # average overall mshr miss latency
system.cpu.dcache.demand_avg_mshr_miss_latency::total 66073.979144                       # average overall mshr miss latency
system.cpu.dcache.overall_avg_mshr_miss_latency::.cpu.data 67296.269144                       # average overall mshr miss latency
system.cpu.dcache.overall_avg_mshr_miss_latency::total 67296.269144                       # average overall mshr miss latency
system.cpu.dcache.replacements                 422889                       # number of replacements
system.cpu.dcache.ReadReq_hits::.cpu.data     34304949                       # number of ReadReq hits
system.cpu.dcache.ReadReq_hits::total        34304949                       # number of ReadReq hits
system.cpu.dcache.ReadReq_misses::.cpu.data       349212                       # number of ReadReq misses
system.cpu.dcache.ReadReq_misses::total        349212                       # number of ReadReq misses
system.cpu.dcache.ReadReq_miss_latency::.cpu.data  21483266000                       # number of ReadReq miss cycles
system.cpu.dcache.ReadReq_miss_latency::total  21483266000                       # number of ReadReq miss cycles
system.cpu.dcache.ReadReq_accesses::.cpu.data     34654161                       # number of ReadReq accesses(hits+misses)
system.cpu.dcache.ReadReq_accesses::total     34654161                       # number of ReadReq accesses(hits+misses)
system.cpu.dcache.ReadReq_miss_rate::.cpu.data     0.010077                       # miss rate for ReadReq accesses
system.cpu.dcache.ReadReq_miss_rate::total     0.010077                       # miss rate for ReadReq accesses
system.cpu.dcache.ReadReq_avg_miss_latency::.cpu.data 61519.266234                       # average ReadReq miss latency
system.cpu.dcache.ReadReq_avg_miss_latency::total 61519.266234                       # average ReadReq miss latency
system.cpu.dcache.ReadReq_mshr_hits::.cpu.data       150535                       # number of ReadReq MSHR hits
system.cpu.dcache.ReadReq_mshr_hits::total       150535                       # number of ReadReq MSHR hits
system.cpu.dcache.ReadReq_mshr_misses::.cpu.data       198677                       # number of ReadReq MSHR misses
system.cpu.dcache.ReadReq_mshr_misses::total       198677                       # number of ReadReq MSHR misses
system.cpu.dcache.ReadReq_mshr_miss_latency::.cpu.data  12065333000                       # number of ReadReq MSHR miss cycles
system.cpu.dcache.ReadReq_mshr_miss_latency::total  12065333000                       # number of ReadReq MSHR miss cycles
system.cpu.dcache.ReadReq_mshr_miss_rate::.cpu.data     0.005733                       # mshr miss rate for ReadReq accesses
system.cpu.dcache.ReadReq_mshr_miss_rate::total     0.005733                       # mshr miss rate for ReadReq accesses
system.cpu.dcache.ReadReq_avg_mshr_miss_latency::.cpu.data 60728.383255                       # average ReadReq mshr miss latency
system.cpu.dcache.ReadReq_avg_mshr_miss_latency::total 60728.383255                       # average ReadReq mshr miss latency
system.cpu.dcache.WriteReq_hits::.cpu.data      8355441                       # number of WriteReq hits
system.cpu.dcache.WriteReq_hits::total        8355441                       # number of WriteReq hits
system.cpu.dcache.WriteReq_misses::.cpu.data       167843                       # number of WriteReq misses
system.cpu.dcache.WriteReq_misses::total       167843                       # number of WriteReq misses
system.cpu.dcache.WriteReq_miss_latency::.cpu.data  12319590948                       # number of WriteReq miss cycles
system.cpu.dcache.WriteReq_miss_latency::total  12319590948                       # number of WriteReq miss cycles
system.cpu.dcache.WriteReq_accesses::.cpu.data      8523284                       # number of WriteReq accesses(hits+misses)
system.cpu.dcache.WriteReq_accesses::total      8523284                       # number of WriteReq accesses(hits+misses)
system.cpu.dcache.WriteReq_miss_rate::.cpu.data     0.019692                       # miss rate for WriteReq accesses
system.cpu.dcache.WriteReq_miss_rate::total     0.019692                       # miss rate for WriteReq accesses
system.cpu.dcache.WriteReq_avg_miss_latency::.cpu.data 73399.492073                       # average WriteReq miss latency
system.cpu.dcache.WriteReq_avg_miss_latency::total 73399.492073                       # average WriteReq miss latency
system.cpu.dcache.WriteReq_mshr_hits::.cpu.data           12                       # number of WriteReq MSHR hits
system.cpu.dcache.WriteReq_mshr_hits::total           12                       # number of WriteReq MSHR hits
system.cpu.dcache.WriteReq_mshr_misses::.cpu.data       167831                       # number of WriteReq MSHR misses
system.cpu.dcache.WriteReq_mshr_misses::total       167831                       # number of WriteReq MSHR misses
system.cpu.dcache.WriteReq_mshr_miss_latency::.cpu.data  12151308948                       # number of WriteReq MSHR miss cycles
system.cpu.dcache.WriteReq_mshr_miss_latency::total  12151308948                       # number of WriteReq MSHR miss cycles
system.cpu.dcache.WriteReq_mshr_miss_rate::.cpu.data     0.019691                       # mshr miss rate for WriteReq accesses
system.cpu.dcache.WriteReq_mshr_miss_rate::total     0.019691                       # mshr miss rate for WriteReq accesses
system.cpu.dcache.WriteReq_avg_mshr_miss_latency::.cpu.data 72402.052946                       # average WriteReq mshr miss latency
system.cpu.dcache.WriteReq_avg_mshr_miss_latency::total 72402.052946                       # average WriteReq mshr miss latency
system.cpu.dcache.SoftPFReq_hits::.cpu.data      1372686                       # number of SoftPFReq hits
system.cpu.dcache.SoftPFReq_hits::total       1372686                       # number of SoftPFReq hits
system.cpu.dcache.SoftPFReq_misses::.cpu.data       157087                       # number of SoftPFReq misses
system.cpu.dcache.SoftPFReq_misses::total       157087                       # number of SoftPFReq misses
system.cpu.dcache.SoftPFReq_accesses::.cpu.data      1529773                       # number of SoftPFReq accesses(hits+misses)
system.cpu.dcache.SoftPFReq_accesses::total      1529773                       # number of SoftPFReq accesses(hits+misses)
system.cpu.dcache.SoftPFReq_miss_rate::.cpu.data     0.102686                       # miss rate for SoftPFReq accesses
system.cpu.dcache.SoftPFReq_miss_rate::total     0.102686                       # miss rate for SoftPFReq accesses
system.cpu.dcache.SoftPFReq_mshr_misses::.cpu.data        56894                       # number of SoftPFReq MSHR misses
system.cpu.dcache.SoftPFReq_mshr_misses::total        56894                       # number of SoftPFReq MSHR misses
system.cpu.dcache.SoftPFReq_mshr_miss_latency::.cpu.data   4276733000                       # number of SoftPFReq MSHR miss cycles
system.cpu.dcache.SoftPFReq_mshr_miss_latency::total   4276733000                       # number of SoftPFReq MSHR miss cycles
system.cpu.dcache.SoftPFReq_mshr_miss_rate::.cpu.data     0.037191                       # mshr miss rate for SoftPFReq accesses
system.cpu.dcache.SoftPFReq_mshr_miss_rate::total     0.037191                       # mshr miss rate for SoftPFReq accesses
system.cpu.dcache.SoftPFReq_avg_mshr_miss_latency::.cpu.data 75170.193694                       # average SoftPFReq mshr miss latency
system.cpu.dcache.SoftPFReq_avg_mshr_miss_latency::total 75170.193694                       # average SoftPFReq mshr miss latency
system.cpu.dcache.power_state.pwrStateResidencyTicks::UNDEFINED  51310304500                       # Cumulative time (in ticks) in various power states
system.cpu.dcache.tags.tagsinuse           511.678712                       # Cycle average of tags in use
system.cpu.dcache.tags.total_refs            44456477                       # Total number of references to valid blocks.
system.cpu.dcache.tags.sampled_refs            423401                       # Sample count of references to valid blocks.
system.cpu.dcache.tags.avg_refs            104.998517                       # Average number of references to valid blocks.
system.cpu.dcache.tags.warmup_cycle            163000                       # Cycle when the warmup percentage was hit.
system.cpu.dcache.tags.occ_blocks::.cpu.data   511.678712                       # Average occupied blocks per requestor
system.cpu.dcache.tags.occ_percent::.cpu.data     0.999372                       # Average percentage of cache occupancy
system.cpu.dcache.tags.occ_percent::total     0.999372                       # Average percentage of cache occupancy
system.cpu.dcache.tags.occ_task_id_blocks::1024          512                       # Occupied blocks per task id
system.cpu.dcache.tags.age_task_id_blocks_1024::0           59                       # Occupied blocks per task id
system.cpu.dcache.tags.age_task_id_blocks_1024::1          354                       # Occupied blocks per task id
system.cpu.dcache.tags.age_task_id_blocks_1024::2           92                       # Occupied blocks per task id
system.cpu.dcache.tags.age_task_id_blocks_1024::3            7                       # Occupied blocks per task id
system.cpu.dcache.tags.occ_task_id_percent::1024            1                       # Percentage of cache occupancy per task id
system.cpu.dcache.tags.tag_accesses          89837837                       # Number of tag accesses
system.cpu.dcache.tags.data_accesses         89837837                       # Number of data accesses
system.cpu.dcache.tags.power_state.pwrStateResidencyTicks::UNDEFINED  51310304500                       # Cumulative time (in ticks) in various power states
system.cpu.decode.idleCycles                  7888033                       # Number of cycles decode is idle
system.cpu.decode.blockedCycles              68378244                       # Number of cycles decode is blocked
system.cpu.decode.runCycles                  11131677                       # Number of cycles decode is running
system.cpu.decode.unblockCycles              14695419                       # Number of cycles decode is unblocking
system.cpu.decode.squashCycles                 337275                       # Number of cycles decode is squashing
system.cpu.decode.branchResolved              3096411                       # Number of times decode resolved a  branch
system.cpu.decode.branchMispred                  1672                       # Number of times decode detected a branch misprediction
system.cpu.decode.decodedInsts              199749263                       # Number of instructions handled by decode
system.cpu.decode.squashedInsts                  7930                       # Number of squashed instructions handled by decode
system.cpu.dtb.rdAccesses                    38195138                       # TLB accesses on read requests
system.cpu.dtb.wrAccesses                    16930092                       # TLB accesses on write requests
system.cpu.dtb.rdMisses                          5653                       # TLB misses on read requests
system.cpu.dtb.wrMisses                        189630                       # TLB misses on write requests
system.cpu.dtb.walker.power_state.pwrStateResidencyTicks::UNDEFINED  51310304500                       # Cumulative time (in ticks) in various power states
system.cpu.dtb_walker_cache.blocked_cycles::no_mshrs            0                       # number of cycles access was blocked
system.cpu.dtb_walker_cache.blocked_cycles::no_targets            0                       # number of cycles access was blocked
system.cpu.dtb_walker_cache.blocked::no_mshrs            0                       # number of cycles access was blocked
system.cpu.dtb_walker_cache.blocked::no_targets            0                       # number of cycles access was blocked
system.cpu.dtb_walker_cache.avg_blocked_cycles::no_mshrs          nan                       # average number of cycles each access was blocked
system.cpu.dtb_walker_cache.avg_blocked_cycles::no_targets          nan                       # average number of cycles each access was blocked
system.cpu.dtb_walker_cache.replacements            0                       # number of replacements
system.cpu.dtb_walker_cache.power_state.pwrStateResidencyTicks::UNDEFINED  51310304500                       # Cumulative time (in ticks) in various power states
system.cpu.dtb_walker_cache.tags.tagsinuse            0                       # Cycle average of tags in use
system.cpu.dtb_walker_cache.tags.total_refs            0                       # Total number of references to valid blocks.
system.cpu.dtb_walker_cache.tags.sampled_refs            0                       # Sample count of references to valid blocks.
system.cpu.dtb_walker_cache.tags.avg_refs          nan                       # Average number of references to valid blocks.
system.cpu.dtb_walker_cache.tags.warmup_cycle            0                       # Cycle when the warmup percentage was hit.
system.cpu.dtb_walker_cache.tags.tag_accesses            0                       # Number of tag accesses
system.cpu.dtb_walker_cache.tags.data_accesses            0                       # Number of data accesses
system.cpu.dtb_walker_cache.tags.power_state.pwrStateResidencyTicks::UNDEFINED  51310304500                       # Cumulative time (in ticks) in various power states
system.cpu.fetch.icacheStallCycles           13035482                       # Number of cycles fetch is stalled on an Icache miss
system.cpu.fetch.insts                      118996510                       # Number of instructions fetch has processed
system.cpu.fetch.branches                     6419615                       # Number of branches that fetch encountered
system.cpu.fetch.predictedBranches            4607472                       # Number of branches that fetch has predicted taken
system.cpu.fetch.cycles                      89048210                       # Number of cycles fetch has run and was not squashing or blocked
system.cpu.fetch.squashCycles                  677778                       # Number of cycles fetch has spent squashing
system.cpu.fetch.miscStallCycles                 1033                       # Number of cycles fetch has spent waiting on interrupts,or bad addresses, or out of MSHRs
system.cpu.fetch.pendingTrapStallCycles          6959                       # Number of stall cycles due to pending traps
system.cpu.fetch.pendingQuiesceStallCycles            9                       # Number of stall cycles due to pending quiesce instructions
system.cpu.fetch.icacheWaitRetryStallCycles           66                       # Number of stall cycles due to full MSHR
system.cpu.fetch.cacheLines                  12735808                       # Number of cache lines fetched
system.cpu.fetch.icacheSquashes                 28820                       # Number of outstanding Icache misses that were squashed
system.cpu.fetch.nisnDist::samples          102430648                       # Number of instructions fetched each cycle (Total)
system.cpu.fetch.nisnDist::mean              2.060141                       # Number of instructions fetched each cycle (Total)
system.cpu.fetch.nisnDist::stdev             3.216774                       # Number of instructions fetched each cycle (Total)
system.cpu.fetch.nisnDist::underflows               0      0.00%      0.00% # Number of instructions fetched each cycle (Total)
system.cpu.fetch.nisnDist::0                 67562275     65.96%     65.96% # Number of instructions fetched each cycle (Total)
system.cpu.fetch.nisnDist::1                  1953430      1.91%     67.87% # Number of instructions fetched each cycle (Total)
system.cpu.fetch.nisnDist::2                  3576323      3.49%     71.36% # Number of instructions fetched each cycle (Total)
system.cpu.fetch.nisnDist::3                  2660447      2.60%     73.95% # Number of instructions fetched each cycle (Total)
system.cpu.fetch.nisnDist::4                  2007369      1.96%     75.91% # Number of instructions fetched each cycle (Total)
system.cpu.fetch.nisnDist::5                  2088803      2.04%     77.95% # Number of instructions fetched each cycle (Total)
system.cpu.fetch.nisnDist::6                  1395365      1.36%     79.32% # Number of instructions fetched each cycle (Total)
system.cpu.fetch.nisnDist::7                  2404646      2.35%     81.66% # Number of instructions fetched each cycle (Total)
system.cpu.fetch.nisnDist::8                 18781990     18.34%    100.00% # Number of instructions fetched each cycle (Total)
system.cpu.fetch.nisnDist::overflows                0      0.00%    100.00% # Number of instructions fetched each cycle (Total)
system.cpu.fetch.nisnDist::min_value                0                       # Number of instructions fetched each cycle (Total)
system.cpu.fetch.nisnDist::max_value                8                       # Number of instructions fetched each cycle (Total)
system.cpu.fetch.nisnDist::total            102430648                       # Number of instructions fetched each cycle (Total)
system.cpu.fetch.branchRate                  0.062557                       # Number of branch fetches per cycle
system.cpu.fetch.rate                        1.159577                       # Number of inst fetches per cycle
system.cpu.icache.demand_hits::.cpu.inst     12730657                       # number of demand (read+write) hits
system.cpu.icache.demand_hits::total         12730657                       # number of demand (read+write) hits
system.cpu.icache.overall_hits::.cpu.inst     12730657                       # number of overall hits
system.cpu.icache.overall_hits::total        12730657                       # number of overall hits
system.cpu.icache.demand_misses::.cpu.inst         5150                       # number of demand (read+write) misses
system.cpu.icache.demand_misses::total           5150                       # number of demand (read+write) misses
system.cpu.icache.overall_misses::.cpu.inst         5150                       # number of overall misses
system.cpu.icache.overall_misses::total          5150                       # number of overall misses
system.cpu.icache.demand_miss_latency::.cpu.inst    294726500                       # number of demand (read+write) miss cycles
system.cpu.icache.demand_miss_latency::total    294726500                       # number of demand (read+write) miss cycles
system.cpu.icache.overall_miss_latency::.cpu.inst    294726500                       # number of overall miss cycles
system.cpu.icache.overall_miss_latency::total    294726500                       # number of overall miss cycles
system.cpu.icache.demand_accesses::.cpu.inst     12735807                       # number of demand (read+write) accesses
system.cpu.icache.demand_accesses::total     12735807                       # number of demand (read+write) accesses
system.cpu.icache.overall_accesses::.cpu.inst     12735807                       # number of overall (read+write) accesses
system.cpu.icache.overall_accesses::total     12735807                       # number of overall (read+write) accesses
system.cpu.icache.demand_miss_rate::.cpu.inst     0.000404                       # miss rate for demand accesses
system.cpu.icache.demand_miss_rate::total     0.000404                       # miss rate for demand accesses
system.cpu.icache.overall_miss_rate::.cpu.inst     0.000404                       # miss rate for overall accesses
system.cpu.icache.overall_miss_rate::total     0.000404                       # miss rate for overall accesses
system.cpu.icache.demand_avg_miss_latency::.cpu.inst 57228.446602                       # average overall miss latency
system.cpu.icache.demand_avg_miss_latency::total 57228.446602                       # average overall miss latency
system.cpu.icache.overall_avg_miss_latency::.cpu.inst 57228.446602                       # average overall miss latency
system.cpu.icache.overall_avg_miss_latency::total 57228.446602                       # average overall miss latency
system.cpu.icache.blocked_cycles::no_mshrs          900                       # number of cycles access was blocked
system.cpu.icache.blocked_cycles::no_targets            0                       # number of cycles access was blocked
system.cpu.icache.blocked::no_mshrs                20                       # number of cycles access was blocked
system.cpu.icache.blocked::no_targets               0                       # number of cycles access was blocked
system.cpu.icache.avg_blocked_cycles::no_mshrs           45                       # average number of cycles each access was blocked
system.cpu.icache.avg_blocked_cycles::no_targets          nan                       # average number of cycles each access was blocked
system.cpu.icache.writebacks::.writebacks         3408                       # number of writebacks
system.cpu.icache.writebacks::total              3408                       # number of writebacks
system.cpu.icache.demand_mshr_hits::.cpu.inst         1229                       # number of demand (read+write) MSHR hits
system.cpu.icache.demand_mshr_hits::total         1229                       # number of demand (read+write) MSHR hits
system.cpu.icache.overall_mshr_hits::.cpu.inst         1229                       # number of overall MSHR hits
system.cpu.icache.overall_mshr_hits::total         1229                       # number of overall MSHR hits
system.cpu.icache.demand_mshr_misses::.cpu.inst         3921                       # number of demand (read+write) MSHR misses
system.cpu.icache.demand_mshr_misses::total         3921                       # number of demand (read+write) MSHR misses
system.cpu.icache.overall_mshr_misses::.cpu.inst         3921                       # number of overall MSHR misses
system.cpu.icache.overall_mshr_misses::total         3921                       # number of overall MSHR misses
system.cpu.icache.demand_mshr_miss_latency::.cpu.inst    229270500                       # number of demand (read+write) MSHR miss cycles
system.cpu.icache.demand_mshr_miss_latency::total    229270500                       # number of demand (read+write) MSHR miss cycles
system.cpu.icache.overall_mshr_miss_latency::.cpu.inst    229270500                       # number of overall MSHR miss cycles
system.cpu.icache.overall_mshr_miss_latency::total    229270500                       # number of overall MSHR miss cycles
system.cpu.icache.demand_mshr_miss_rate::.cpu.inst     0.000308                       # mshr miss rate for demand accesses
system.cpu.icache.demand_mshr_miss_rate::total     0.000308                       # mshr miss rate for demand accesses
system.cpu.icache.overall_mshr_miss_rate::.cpu.inst     0.000308                       # mshr miss rate for overall accesses
system.cpu.icache.overall_mshr_miss_rate::total     0.000308                       # mshr miss rate for overall accesses
system.cpu.icache.demand_avg_mshr_miss_latency::.cpu.inst 58472.456006                       # average overall mshr miss latency
system.cpu.icache.demand_avg_mshr_miss_latency::total 58472.456006                       # average overall mshr miss latency
system.cpu.icache.overall_avg_mshr_miss_latency::.cpu.inst 58472.456006                       # average overall mshr miss latency
system.cpu.icache.overall_avg_mshr_miss_latency::total 58472.456006                       # average overall mshr miss latency
system.cpu.icache.replacements                   3408                       # number of replacements
system.cpu.icache.ReadReq_hits::.cpu.inst     12730657                       # number of ReadReq hits
system.cpu.icache.ReadReq_hits::total        12730657                       # number of ReadReq hits
system.cpu.icache.ReadReq_misses::.cpu.inst         5150                       # number of ReadReq misses
system.cpu.icache.ReadReq_misses::total          5150                       # number of ReadReq misses
system.cpu.icache.ReadReq_miss_latency::.cpu.inst    294726500                       # number of ReadReq miss cycles
system.cpu.icache.ReadReq_miss_latency::total    294726500                       # number of ReadReq miss cycles
system.cpu.icache.ReadReq_accesses::.cpu.inst     12735807                       # number of ReadReq accesses(hits+misses)
system.cpu.icache.ReadReq_accesses::total     12735807                       # number of ReadReq accesses(hits+misses)
system.cpu.icache.ReadReq_miss_rate::.cpu.inst     0.000404                       # miss rate for ReadReq accesses
system.cpu.icache.ReadReq_miss_rate::total     0.000404                       # miss rate for ReadReq accesses
system.cpu.icache.ReadReq_avg_miss_latency::.cpu.inst 57228.446602                       # average ReadReq miss latency
system.cpu.icache.ReadReq_avg_miss_latency::total 57228.446602                       # average ReadReq miss latency
system.cpu.icache.ReadReq_mshr_hits::.cpu.inst         1229                       # number of ReadReq MSHR hits
system.cpu.icache.ReadReq_mshr_hits::total         1229                       # number of ReadReq MSHR hits
system.cpu.icache.ReadReq_mshr_misses::.cpu.inst         3921                       # number of ReadReq MSHR misses
system.cpu.icache.ReadReq_mshr_misses::total         3921                       # number of ReadReq MSHR misses
system.cpu.icache.ReadReq_mshr_miss_latency::.cpu.inst    229270500                       # number of ReadReq MSHR miss cycles
system.cpu.icache.ReadReq_mshr_miss_latency::total    229270500                       # number of ReadReq MSHR miss cycles
system.cpu.icache.ReadReq_mshr_miss_rate::.cpu.inst     0.000308                       # mshr miss rate for ReadReq accesses
system.cpu.icache.ReadReq_mshr_miss_rate::total     0.000308                       # mshr miss rate for ReadReq accesses
system.cpu.icache.ReadReq_avg_mshr_miss_latency::.cpu.inst 58472.456006                       # average ReadReq mshr miss latency
system.cpu.icache.ReadReq_avg_mshr_miss_latency::total 58472.456006                       # average ReadReq mshr miss latency
system.cpu.icache.power_state.pwrStateResidencyTicks::UNDEFINED  51310304500                       # Cumulative time (in ticks) in various power states
system.cpu.icache.tags.tagsinuse           511.543658                       # Cycle average of tags in use
system.cpu.icache.tags.total_refs            12734578                       # Total number of references to valid blocks.
system.cpu.icache.tags.sampled_refs              3921                       # Sample count of references to valid blocks.
system.cpu.icache.tags.avg_refs           3247.788319                       # Average number of references to valid blocks.
system.cpu.icache.tags.warmup_cycle             79500                       # Cycle when the warmup percentage was hit.
system.cpu.icache.tags.occ_blocks::.cpu.inst   511.543658                       # Average occupied blocks per requestor
system.cpu.icache.tags.occ_percent::.cpu.inst     0.999109                       # Average percentage of cache occupancy
system.cpu.icache.tags.occ_percent::total     0.999109                       # Average percentage of cache occupancy
system.cpu.icache.tags.occ_task_id_blocks::1024          512                       # Occupied blocks per task id
system.cpu.icache.tags.age_task_id_blocks_1024::3           14                       # Occupied blocks per task id
system.cpu.icache.tags.age_task_id_blocks_1024::4          498                       # Occupied blocks per task id
system.cpu.icache.tags.occ_task_id_percent::1024            1                       # Percentage of cache occupancy per task id
system.cpu.icache.tags.tag_accesses          25475535                       # Number of tag accesses
system.cpu.icache.tags.data_accesses         25475535                       # Number of data accesses
system.cpu.icache.tags.power_state.pwrStateResidencyTicks::UNDEFINED  51310304500                       # Cumulative time (in ticks) in various power states
system.cpu.interrupts.clk_domain.clock           8000                       # Clock period in ticks
system.cpu.itb.rdAccesses                           0                       # TLB accesses on read requests
system.cpu.itb.wrAccesses                    12736926                       # TLB accesses on write requests
system.cpu.itb.rdMisses                             0                       # TLB misses on read requests
system.cpu.itb.wrMisses                          1386                       # TLB misses on write requests
system.cpu.itb.walker.power_state.pwrStateResidencyTicks::UNDEFINED  51310304500                       # Cumulative time (in ticks) in various power states
system.cpu.itb_walker_cache.blocked_cycles::no_mshrs            0                       # number of cycles access was blocked
system.cpu.itb_walker_cache.blocked_cycles::no_targets            0                       # number of cycles access was blocked
system.cpu.itb_walker_cache.blocked::no_mshrs            0                       # number of cycles access was blocked
system.cpu.itb_walker_cache.blocked::no_targets            0                       # number of cycles access was blocked
system.cpu.itb_walker_cache.avg_blocked_cycles::no_mshrs          nan                       # average number of cycles each access was blocked
system.cpu.itb_walker_cache.avg_blocked_cycles::no_targets          nan                       # average number of cycles each access was blocked
system.cpu.itb_walker_cache.replacements            0                       # number of replacements
system.cpu.itb_walker_cache.power_state.pwrStateResidencyTicks::UNDEFINED  51310304500                       # Cumulative time (in ticks) in various power states
system.cpu.itb_walker_cache.tags.tagsinuse            0                       # Cycle average of tags in use
system.cpu.itb_walker_cache.tags.total_refs            0                       # Total number of references to valid blocks.
system.cpu.itb_walker_cache.tags.sampled_refs            0                       # Sample count of references to valid blocks.
system.cpu.itb_walker_cache.tags.avg_refs          nan                       # Average number of references to valid blocks.
system.cpu.itb_walker_cache.tags.warmup_cycle            0                       # Cycle when the warmup percentage was hit.
system.cpu.itb_walker_cache.tags.tag_accesses            0                       # Number of tag accesses
system.cpu.itb_walker_cache.tags.data_accesses            0                       # Number of data accesses
system.cpu.itb_walker_cache.tags.power_state.pwrStateResidencyTicks::UNDEFINED  51310304500                       # Cumulative time (in ticks) in various power states
system.cpu.lsq0.forwLoads                     1995717                       # Number of loads that had data forwarded from stores
system.cpu.lsq0.squashedLoads                 7664859                       # Number of loads squashed
system.cpu.lsq0.ignoredResponses                 3911                       # Number of memory responses ignored because the instruction is squashed
system.cpu.lsq0.memOrderViolation                 503                       # Number of memory ordering violations
system.cpu.lsq0.squashedStores                9190670                       # Number of stores squashed
system.cpu.lsq0.rescheduledLoads                14673                       # Number of loads that were rescheduled
system.cpu.lsq0.blockedByCache                   5777                       # Number of times an access to memory failed due to the cache being blocked
system.cpu.power_state.pwrStateResidencyTicks::ON  51310304500                       # Cumulative time (in ticks) in various power states
system.cpu.rename.squashCycles                 337275                       # Number of cycles rename is squashing
system.cpu.rename.idleCycles                 12563296                       # Number of cycles rename is idle
system.cpu.rename.blockCycles                25426650                       # Number of cycles rename is blocking
system.cpu.rename.serializeStallCycles           2875                       # count of cycles rename stalledfor serializing inst
system.cpu.rename.runCycles                  20912391                       # Number of cycles rename is running
system.cpu.rename.unblockCycles              43188161                       # Number of cycles rename is unblocking
system.cpu.rename.renamedInsts              197721910                       # Number of instructions processed by rename
system.cpu.rename.ROBFullEvents                 11432                       # Number of times rename has blocked due to ROB full
system.cpu.rename.IQFullEvents               21709455                       # Number of times rename has blocked due to IQ full
system.cpu.rename.LQFullEvents                1535728                       # Number of times rename has blocked due to LQ full
system.cpu.rename.SQFullEvents               16822259                       # Number of times rename has blocked due to SQ full
system.cpu.rename.renamedOperands           250582512                       # Number of destination operands rename has renamed
system.cpu.rename.lookups                   481520454                       # Number of register rename lookups that rename has made
system.cpu.rename.intLookups                326774187                       # Number of integer rename lookups
system.cpu.rename.fpLookups                  48596780                       # Number of floating rename lookups
system.cpu.rename.committedMaps             225115857                       # Number of HB maps that are committed
system.cpu.rename.undoneMaps                 25466523                       # Number of HB maps that are undone due to squashing
system.cpu.rename.serializing                      64                       # count of serializing insts renamed
system.cpu.rename.tempSerializing                  31                       # count of temporary serializing insts renamed
system.cpu.rename.skidInsts                  65905656                       # count of insts added to the skid buffer
system.cpu.rob.reads                        277372157                       # The number of ROB reads
system.cpu.rob.writes                       386308422                       # The number of ROB writes
system.cpu.thread_0.numInsts                100000001                       # Number of Instructions committed
system.cpu.thread_0.numOps                  166019455                       # Number of Ops committed
system.cpu.thread_0.numMemRefs                      0                       # Number of Memory References
system.cpu_clk_domain.clock                       500                       # Clock period in ticks
system.cpu_voltage_domain.voltage                   1                       # Voltage in Volts
system.l2.demand_hits::.cpu.inst                  977                       # number of demand (read+write) hits
system.l2.demand_hits::.cpu.data                38550                       # number of demand (read+write) hits
system.l2.demand_hits::total                    39527                       # number of demand (read+write) hits
system.l2.overall_hits::.cpu.inst                 977                       # number of overall hits
system.l2.overall_hits::.cpu.data               38550                       # number of overall hits
system.l2.overall_hits::total                   39527                       # number of overall hits
system.l2.demand_misses::.cpu.inst               2942                       # number of demand (read+write) misses
system.l2.demand_misses::.cpu.data             384852                       # number of demand (read+write) misses
system.l2.demand_misses::total                 387794                       # number of demand (read+write) misses
system.l2.overall_misses::.cpu.inst              2942                       # number of overall misses
system.l2.overall_misses::.cpu.data            384852                       # number of overall misses
system.l2.overall_misses::total                387794                       # number of overall misses
system.l2.demand_miss_latency::.cpu.inst    212841000                       # number of demand (read+write) miss cycles
system.l2.demand_miss_latency::.cpu.data  27430412000                       # number of demand (read+write) miss cycles
system.l2.demand_miss_latency::total      27643253000                       # number of demand (read+write) miss cycles
system.l2.overall_miss_latency::.cpu.inst    212841000                       # number of overall miss cycles
system.l2.overall_miss_latency::.cpu.data  27430412000                       # number of overall miss cycles
system.l2.overall_miss_latency::total     27643253000                       # number of overall miss cycles
system.l2.demand_accesses::.cpu.inst             3919                       # number of demand (read+write) accesses
[...]
system.mem_ctrls.dram.writeBursts              165732                       # Number of DRAM write bursts
system.mem_ctrls.dram.perBankRdBursts::0        24376                       # Per bank write bursts
system.mem_ctrls.dram.perBankRdBursts::1        24837                       # Per bank write bursts
system.mem_ctrls.dram.perBankRdBursts::2        24578                       # Per bank write bursts
system.mem_ctrls.dram.perBankRdBursts::3        24749                       # Per bank write bursts
system.mem_ctrls.dram.perBankRdBursts::4        24129                       # Per bank write bursts
system.mem_ctrls.dram.perBankRdBursts::5        24158                       # Per bank write bursts
system.mem_ctrls.dram.perBankRdBursts::6        23844                       # Per bank write bursts
system.mem_ctrls.dram.perBankRdBursts::7        24124                       # Per bank write bursts
system.mem_ctrls.dram.perBankRdBursts::8        23982                       # Per bank write bursts
system.mem_ctrls.dram.perBankRdBursts::9        23893                       # Per bank write bursts
system.mem_ctrls.dram.perBankRdBursts::10        23888                       # Per bank write bursts
system.mem_ctrls.dram.perBankRdBursts::11        24081                       # Per bank write bursts
system.mem_ctrls.dram.perBankRdBursts::12        23998                       # Per bank write bursts
system.mem_ctrls.dram.perBankRdBursts::13        24228                       # Per bank write bursts
system.mem_ctrls.dram.perBankRdBursts::14        24599                       # Per bank write bursts
system.mem_ctrls.dram.perBankRdBursts::15        24319                       # Per bank write bursts
system.mem_ctrls.dram.perBankWrBursts::0        10216                       # Per bank write bursts
system.mem_ctrls.dram.perBankWrBursts::1        10510                       # Per bank write bursts
system.mem_ctrls.dram.perBankWrBursts::2        10224                       # Per bank write bursts
system.mem_ctrls.dram.perBankWrBursts::3        10257                       # Per bank write bursts
system.mem_ctrls.dram.perBankWrBursts::4        10133                       # Per bank write bursts
system.mem_ctrls.dram.perBankWrBursts::5        10307                       # Per bank write bursts
system.mem_ctrls.dram.perBankWrBursts::6        10272                       # Per bank write bursts
system.mem_ctrls.dram.perBankWrBursts::7        10427                       # Per bank write bursts
system.mem_ctrls.dram.perBankWrBursts::8        10319                       # Per bank write bursts
system.mem_ctrls.dram.perBankWrBursts::9        10232                       # Per bank write bursts
system.mem_ctrls.dram.perBankWrBursts::10        10327                       # Per bank write bursts
system.mem_ctrls.dram.perBankWrBursts::11        10415                       # Per bank write bursts
system.mem_ctrls.dram.perBankWrBursts::12        10417                       # Per bank write bursts
system.mem_ctrls.dram.perBankWrBursts::13        10670                       # Per bank write bursts
system.mem_ctrls.dram.perBankWrBursts::14        10663                       # Per bank write bursts
system.mem_ctrls.dram.perBankWrBursts::15        10343                       # Per bank write bursts
system.mem_ctrls.dram.totQLat              3610595000                       # Total ticks spent queuing
system.mem_ctrls.dram.totBusLat            1938915000                       # Total ticks spent in databus transfers
system.mem_ctrls.dram.totMemAccLat        10881526250                       # Total ticks spent from burst creation until serviced by the DRAM
system.mem_ctrls.dram.avgQLat                 9310.86                       # Average queueing delay per DRAM burst
system.mem_ctrls.dram.avgBusLat               5000.00                       # Average bus latency per DRAM burst
system.mem_ctrls.dram.avgMemAccLat           28060.86                       # Average memory access latency per DRAM burst
system.mem_ctrls.dram.readRowHits              326645                       # Number of row buffer hits during reads
system.mem_ctrls.dram.writeRowHits             139181                       # Number of row buffer hits during writes
system.mem_ctrls.dram.readRowHitRate            84.23                       # Row buffer hit rate for reads
system.mem_ctrls.dram.writeRowHitRate           83.98                       # Row buffer hit rate for writes
system.mem_ctrls.dram.bytesPerActivate::samples        87683                       # Bytes accessed per row activation
system.mem_ctrls.dram.bytesPerActivate::mean   403.983258                       # Bytes accessed per row activation
system.mem_ctrls.dram.bytesPerActivate::gmean   253.449553                       # Bytes accessed per row activation
system.mem_ctrls.dram.bytesPerActivate::stdev   348.655122                       # Bytes accessed per row activation
system.mem_ctrls.dram.bytesPerActivate::0-127        22688     25.88%     25.88% # Bytes accessed per row activation
system.mem_ctrls.dram.bytesPerActivate::128-255        16980     19.37%     45.24% # Bytes accessed per row activation
system.mem_ctrls.dram.bytesPerActivate::256-383         9221     10.52%     55.76% # Bytes accessed per row activation
system.mem_ctrls.dram.bytesPerActivate::384-511         8969     10.23%     65.99% # Bytes accessed per row activation
system.mem_ctrls.dram.bytesPerActivate::512-639         5500      6.27%     72.26% # Bytes accessed per row activation
system.mem_ctrls.dram.bytesPerActivate::640-767         3651      4.16%     76.42% # Bytes accessed per row activation
system.mem_ctrls.dram.bytesPerActivate::768-895         4664      5.32%     81.74% # Bytes accessed per row activation
system.mem_ctrls.dram.bytesPerActivate::896-1023         3826      4.36%     86.10% # Bytes accessed per row activation
system.mem_ctrls.dram.bytesPerActivate::1024-1151        12184     13.90%    100.00% # Bytes accessed per row activation
system.mem_ctrls.dram.bytesPerActivate::total        87683                       # Bytes accessed per row activation
system.mem_ctrls.dram.bytesRead              24818112                       # Total number of bytes read from DRAM
system.mem_ctrls.dram.bytesWritten           10606848                       # Total number of bytes written to DRAM
system.mem_ctrls.dram.avgRdBW              483.686703                       # Average DRAM read bandwidth in MiBytes/s
system.mem_ctrls.dram.avgWrBW              206.719646                       # Average DRAM write bandwidth in MiBytes/s
system.mem_ctrls.dram.peakBW                 12800.00                       # Theoretical peak bandwidth in MiByte/s
system.mem_ctrls.dram.busUtil                    5.39                       # Data bus utilization in percentage
system.mem_ctrls.dram.busUtilRead                3.78                       # Data bus utilization in percentage for reads
system.mem_ctrls.dram.busUtilWrite               1.61                       # Data bus utilization in percentage for writes
system.mem_ctrls.dram.pageHitRate               84.16                       # Row buffer hit rate, read and write combined
system.mem_ctrls.dram.power_state.pwrStateResidencyTicks::UNDEFINED  51310304500                       # Cumulative time (in ticks) in various power states
system.mem_ctrls.dram.rank0.actEnergy       310490040                       # Energy for activate commands per rank (pJ)
system.mem_ctrls.dram.rank0.preEnergy       165017985                       # Energy for precharge commands per rank (pJ)
system.mem_ctrls.dram.rank0.readEnergy     1390836300                       # Energy for read commands per rank (pJ)
system.mem_ctrls.dram.rank0.writeEnergy     429846120                       # Energy for write commands per rank (pJ)
system.mem_ctrls.dram.rank0.refreshEnergy 4049862960.000000                       # Energy for refresh commands per rank (pJ)
system.mem_ctrls.dram.rank0.actBackEnergy  19066067940                       # Energy for active background per rank (pJ)
system.mem_ctrls.dram.rank0.preBackEnergy   3647520960                       # Energy for precharge background per rank (pJ)
system.mem_ctrls.dram.rank0.actPowerDownEnergy            0                       # Energy for active power-down per rank (pJ)
system.mem_ctrls.dram.rank0.prePowerDownEnergy            0                       # Energy for precharge power-down per rank (pJ)
system.mem_ctrls.dram.rank0.selfRefreshEnergy            0                       # Energy for self refresh per rank (pJ)
system.mem_ctrls.dram.rank0.totalEnergy   29059642305                       # Total energy per rank (pJ)
system.mem_ctrls.dram.rank0.averagePower   566.351001                       # Core power per rank (mW)
system.mem_ctrls.dram.rank0.totalIdleTime            0                       # Total Idle time Per DRAM Rank
system.mem_ctrls.dram.rank0.pwrStateTime::IDLE   9243501500                       # Time in different power states
system.mem_ctrls.dram.rank0.pwrStateTime::REF   1713140000                       # Time in different power states
system.mem_ctrls.dram.rank0.pwrStateTime::SREF            0                       # Time in different power states
system.mem_ctrls.dram.rank0.pwrStateTime::PRE_PDN            0                       # Time in different power states
system.mem_ctrls.dram.rank0.pwrStateTime::ACT  40353663000                       # Time in different power states
system.mem_ctrls.dram.rank0.pwrStateTime::ACT_PDN            0                       # Time in different power states
system.mem_ctrls.dram.rank1.actEnergy       315609420                       # Energy for activate commands per rank (pJ)
system.mem_ctrls.dram.rank1.preEnergy       167739000                       # Energy for precharge commands per rank (pJ)
system.mem_ctrls.dram.rank1.readEnergy     1377934320                       # Energy for read commands per rank (pJ)
system.mem_ctrls.dram.rank1.writeEnergy     435274920                       # Energy for write commands per rank (pJ)
system.mem_ctrls.dram.rank1.refreshEnergy 4049862960.000000                       # Energy for refresh commands per rank (pJ)
system.mem_ctrls.dram.rank1.actBackEnergy  18907356570                       # Energy for active background per rank (pJ)
system.mem_ctrls.dram.rank1.preBackEnergy   3781172640                       # Energy for precharge background per rank (pJ)
system.mem_ctrls.dram.rank1.actPowerDownEnergy            0                       # Energy for active power-down per rank (pJ)
system.mem_ctrls.dram.rank1.prePowerDownEnergy            0                       # Energy for precharge power-down per rank (pJ)
system.mem_ctrls.dram.rank1.selfRefreshEnergy            0                       # Energy for self refresh per rank (pJ)
system.mem_ctrls.dram.rank1.totalEnergy   29034949830                       # Total energy per rank (pJ)
system.mem_ctrls.dram.rank1.averagePower   565.869763                       # Core power per rank (mW)
system.mem_ctrls.dram.rank1.totalIdleTime            0                       # Total Idle time Per DRAM Rank
system.mem_ctrls.dram.rank1.pwrStateTime::IDLE   9586838000                       # Time in different power states
system.mem_ctrls.dram.rank1.pwrStateTime::REF   1713140000                       # Time in different power states
system.mem_ctrls.dram.rank1.pwrStateTime::SREF            0                       # Time in different power states
system.mem_ctrls.dram.rank1.pwrStateTime::PRE_PDN            0                       # Time in different power states
system.mem_ctrls.dram.rank1.pwrStateTime::ACT  40010326500                       # Time in different power states
system.mem_ctrls.dram.rank1.pwrStateTime::ACT_PDN            0                       # Time in different power states
system.mem_ctrls.power_state.pwrStateResidencyTicks::UNDEFINED  51310304500                       # Cumulative time (in ticks) in various power states
system.membus.trans_dist::ReadResp             222132                       # Transaction distribution
system.membus.trans_dist::WritebackDirty       165755                       # Transaction distribution
system.membus.trans_dist::CleanEvict           213326                       # Transaction distribution
system.membus.trans_dist::UpgradeReq                1                       # Transaction distribution
system.membus.trans_dist::ReadExReq            165661                       # Transaction distribution
system.membus.trans_dist::ReadExResp           165661                       # Transaction distribution
system.membus.trans_dist::ReadSharedReq        222132                       # Transaction distribution
system.membus.pkt_count_system.l2.mem_side_port::system.mem_ctrls.port      1154668                       # Packet count per connected requestor and responder (bytes)
system.membus.pkt_count_system.l2.mem_side_port::total      1154668                       # Packet count per connected requestor and responder (bytes)
system.membus.pkt_count::total                1154668                       # Packet count per connected requestor and responder (bytes)
system.membus.pkt_size_system.l2.mem_side_port::system.mem_ctrls.port     35427072                       # Cumulative packet size per connected requestor and responder (bytes)
system.membus.pkt_size_system.l2.mem_side_port::total     35427072                       # Cumulative packet size per connected requestor and responder (bytes)
system.membus.pkt_size::total                35427072                       # Cumulative packet size per connected requestor and responder (bytes)
system.membus.snoops                                0                       # Total snoops (count)
system.membus.snoopTraffic                          0                       # Total snoop traffic (bytes)
system.membus.snoop_fanout::samples            387794                       # Request fanout histogram
system.membus.snoop_fanout::mean                    0                       # Request fanout histogram
system.membus.snoop_fanout::stdev                   0                       # Request fanout histogram
system.membus.snoop_fanout::underflows              0      0.00%      0.00% # Request fanout histogram
system.membus.snoop_fanout::0                  387794    100.00%    100.00% # Request fanout histogram
system.membus.snoop_fanout::1                       0      0.00%    100.00% # Request fanout histogram
system.membus.snoop_fanout::overflows               0      0.00%    100.00% # Request fanout histogram
system.membus.snoop_fanout::min_value               0                       # Request fanout histogram
system.membus.snoop_fanout::max_value               0                       # Request fanout histogram
system.membus.snoop_fanout::total              387794                       # Request fanout histogram
system.membus.power_state.pwrStateResidencyTicks::UNDEFINED  51310304500                       # Cumulative time (in ticks) in various power states
system.membus.reqLayer2.occupancy           357473750                       # Layer occupancy (ticks)
system.membus.reqLayer2.utilization               0.7                       # Layer utilization (%)
system.membus.respLayer1.occupancy          484741250                       # Layer occupancy (ticks)
system.membus.respLayer1.utilization              0.9                       # Layer utilization (%)
system.tol2bus.trans_dist::ReadResp            259491                       # Transaction distribution
system.tol2bus.trans_dist::WritebackDirty       338174                       # Transaction distribution
system.tol2bus.trans_dist::WritebackClean         3408                       # Transaction distribution
system.tol2bus.trans_dist::CleanEvict          464996                       # Transaction distribution
system.tol2bus.trans_dist::UpgradeReq               1                       # Transaction distribution
system.tol2bus.trans_dist::UpgradeResp              1                       # Transaction distribution
system.tol2bus.trans_dist::ReadExReq           167831                       # Transaction distribution
system.tol2bus.trans_dist::ReadExResp          167831                       # Transaction distribution
system.tol2bus.trans_dist::ReadCleanReq          3921                       # Transaction distribution
system.tol2bus.trans_dist::ReadSharedReq       255571                       # Transaction distribution
system.tol2bus.pkt_count_system.cpu.icache.mem_side_port::system.l2.cpu_side_port        11248                       # Packet count per connected requestor and responder (bytes)
system.tol2bus.pkt_count_system.cpu.dcache.mem_side_port::system.l2.cpu_side_port      1269694                       # Packet count per connected requestor and responder (bytes)
system.tol2bus.pkt_count::total               1280942                       # Packet count per connected requestor and responder (bytes)
system.tol2bus.pkt_size_system.cpu.icache.mem_side_port::system.l2.cpu_side_port       468928                       # Cumulative packet size per connected requestor and responder (bytes)
system.tol2bus.pkt_size_system.cpu.dcache.mem_side_port::system.l2.cpu_side_port     38132480                       # Cumulative packet size per connected requestor and responder (bytes)
system.tol2bus.pkt_size::total               38601408                       # Cumulative packet size per connected requestor and responder (bytes)
system.tol2bus.snoops                          380283                       # Total snoops (count)
system.tol2bus.snoopTraffic                  10608448                       # Total snoop traffic (bytes)
system.tol2bus.snoop_fanout::samples           807605                       # Request fanout histogram
system.tol2bus.snoop_fanout::mean            0.001550                       # Request fanout histogram
system.tol2bus.snoop_fanout::stdev           0.039343                       # Request fanout histogram
system.tol2bus.snoop_fanout::underflows             0      0.00%      0.00% # Request fanout histogram
system.tol2bus.snoop_fanout::0                 806353     99.84%     99.84% # Request fanout histogram
system.tol2bus.snoop_fanout::1                   1252      0.16%    100.00% # Request fanout histogram
system.tol2bus.snoop_fanout::2                      0      0.00%    100.00% # Request fanout histogram
system.tol2bus.snoop_fanout::3                      0      0.00%    100.00% # Request fanout histogram
system.tol2bus.snoop_fanout::4                      0      0.00%    100.00% # Request fanout histogram
system.tol2bus.snoop_fanout::overflows              0      0.00%    100.00% # Request fanout histogram
system.tol2bus.snoop_fanout::min_value              0                       # Request fanout histogram
system.tol2bus.snoop_fanout::max_value              1                       # Request fanout histogram
system.tol2bus.snoop_fanout::total             807605                       # Request fanout histogram
system.tol2bus.power_state.pwrStateResidencyTicks::UNDEFINED  51310304500                       # Cumulative time (in ticks) in various power states
system.tol2bus.reqLayer0.occupancy          602637500                       # Layer occupancy (ticks)
system.tol2bus.reqLayer0.utilization              1.2                       # Layer utilization (%)
system.tol2bus.respLayer0.occupancy           5884494                       # Layer occupancy (ticks)
system.tol2bus.respLayer0.utilization             0.0                       # Layer utilization (%)
system.tol2bus.respLayer1.occupancy         635102499                       # Layer occupancy (ticks)
system.tol2bus.respLayer1.utilization             1.2                       # Layer utilization (%)
system.voltage_domain.voltage                       1                       # Voltage in Volts

---------- End Simulation Statistics   ----------
