
---------- Begin Simulation Statistics ----------
final_tick                                 2958393500                       # Number of ticks from beginning of simulation (restored from checkpoints and never reset)
host_inst_rate                                  97648                       # Simulator instruction rate (inst/s)
host_mem_usage                                 705956                       # Number of bytes of host memory used
host_op_rate                                   174904                       # Simulator op (including micro ops) rate (op/s)
host_seconds                                   102.41                       # Real time elapsed on the host
host_tick_rate                               28888129                       # Simulator tick rate (ticks/s)
sim_freq                                 1000000000000                       # Frequency of simulated ticks
sim_insts                                    10000000                       # Number of instructions simulated
sim_ops                                      17911679                       # Number of ops (including micro ops) simulated
sim_seconds                                  0.002958                       # Number of seconds simulated
sim_ticks                                  2958393500                       # Number of ticks simulated
system.cpu.cc_regfile_reads                   4884569                       # number of cc regfile reads
system.cpu.cc_regfile_writes                  4254729                       # number of cc regfile writes
system.cpu.committedInsts                    10000000                       # Number of Instructions Simulated
system.cpu.committedOps                      17911679                       # Number of Ops (including micro ops) Simulated
system.cpu.cpi                               0.591679                       # CPI: Cycles Per Instruction
system.cpu.cpi_total                         0.591679                       # CPI: Total CPI of All Threads
system.cpu.fp_regfile_reads                  12297066                       # number of floating regfile reads
system.cpu.fp_regfile_writes                  6924017                       # number of floating regfile writes
system.cpu.idleCycles                          140802                       # Total number of cycles that the CPU has spent unscheduled due to idling
system.cpu.iew.branchMispredicts                19073                       # Number of branch mispredicts detected at execute
system.cpu.iew.exec_branches                  1115548                       # Number of branches executed
system.cpu.iew.exec_nop                             0                       # number of nop insts executed
system.cpu.iew.exec_rate                     3.096556                       # Inst execution rate
system.cpu.iew.exec_refs                      2789528                       # number of memory reference insts executed
system.cpu.iew.exec_stores                     485435                       # Number of stores executed
system.cpu.iew.exec_swp                             0                       # number of swp insts executed
system.cpu.iew.iewBlockCycles                  189866                       # Number of cycles IEW is blocking
system.cpu.iew.iewDispLoadInsts               2322438                       # Number of dispatched load instructions
system.cpu.iew.iewDispNonSpecInsts                 22                       # Number of dispatched non-speculative instructions
system.cpu.iew.iewDispSquashedInsts              1607                       # Number of squashed instructions skipped by dispatch
system.cpu.iew.iewDispStoreInsts               497327                       # Number of dispatched store instructions
system.cpu.iew.iewDispatchedInsts            18756173                       # Number of instructions dispatched to IQ
system.cpu.iew.iewExecLoadInsts               2304093                       # Number of load instructions executed
system.cpu.iew.iewExecSquashedInsts             24748                       # Number of squashed instructions skipped in execute
system.cpu.iew.iewExecutedInsts              18321668                       # Number of executed instructions
system.cpu.iew.iewIQFullEvents                   1279                       # Number of times the IQ has become full, causing a stall
system.cpu.iew.iewIdleCycles                        0                       # Number of cycles IEW is idle
system.cpu.iew.iewLSQFullEvents                 41909                       # Number of times the LSQ has become full, causing a stall
system.cpu.iew.iewSquashCycles                  17034                       # Number of cycles IEW is squashing
system.cpu.iew.iewUnblockCycles                 43747                       # Number of cycles IEW is unblocking
system.cpu.iew.memOrderViolationEvents            161                       # Number of memory order violations
system.cpu.iew.predictedNotTakenIncorrect        11754                       # Number of branches that were predicted not taken incorrectly
system.cpu.iew.predictedTakenIncorrect           7319                       # Number of branches that were predicted taken incorrectly
system.cpu.iew.wb_consumers                  25212383                       # num instructions consuming a value
system.cpu.iew.wb_count                      18306275                       # cumulative count of insts written-back
system.cpu.iew.wb_fanout                     0.570200                       # average fanout of values written-back
system.cpu.iew.wb_producers                  14376089                       # num instructions producing a value
system.cpu.iew.wb_rate                       3.093955                       # insts written-back per cycle
system.cpu.iew.wb_sent                       18312352                       # cumulative count of insts sent to commit
system.cpu.int_regfile_reads                 18756069                       # number of integer regfile reads
system.cpu.int_regfile_writes                 9703709                       # number of integer regfile writes
system.cpu.ipc                               1.690106                       # IPC: Instructions Per Cycle
system.cpu.ipc_total                         1.690106                       # IPC: Total IPC of All Threads
system.cpu.iq.FU_type_0::No_OpClass            318247      1.73%      1.73% # Type of FU issued
system.cpu.iq.FU_type_0::IntAlu               9892380     53.92%     55.65% # Type of FU issued
system.cpu.iq.FU_type_0::IntMult                 2129      0.01%     55.67% # Type of FU issued
system.cpu.iq.FU_type_0::IntDiv                106028      0.58%     56.24% # Type of FU issued
system.cpu.iq.FU_type_0::FloatAdd              424538      2.31%     58.56% # Type of FU issued
system.cpu.iq.FU_type_0::FloatCmp                   0      0.00%     58.56% # Type of FU issued
system.cpu.iq.FU_type_0::FloatCvt                  32      0.00%     58.56% # Type of FU issued
system.cpu.iq.FU_type_0::FloatMult                  0      0.00%     58.56% # Type of FU issued
system.cpu.iq.FU_type_0::FloatMultAcc               0      0.00%     58.56% # Type of FU issued
system.cpu.iq.FU_type_0::FloatDiv                   0      0.00%     58.56% # Type of FU issued
system.cpu.iq.FU_type_0::FloatMisc                  0      0.00%     58.56% # Type of FU issued
system.cpu.iq.FU_type_0::FloatSqrt                  0      0.00%     58.56% # Type of FU issued
system.cpu.iq.FU_type_0::SimdAdd                 3067      0.02%     58.58% # Type of FU issued
system.cpu.iq.FU_type_0::SimdAddAcc                 0      0.00%     58.58% # Type of FU issued
system.cpu.iq.FU_type_0::SimdAlu               851594      4.64%     63.22% # Type of FU issued
system.cpu.iq.FU_type_0::SimdCmp                   12      0.00%     63.22% # Type of FU issued
system.cpu.iq.FU_type_0::SimdCvt                 7353      0.04%     63.26% # Type of FU issued
system.cpu.iq.FU_type_0::SimdMisc              848275      4.62%     67.88% # Type of FU issued
system.cpu.iq.FU_type_0::SimdMult                  64      0.00%     67.88% # Type of FU issued
system.cpu.iq.FU_type_0::SimdMultAcc                0      0.00%     67.88% # Type of FU issued
system.cpu.iq.FU_type_0::SimdShift               2492      0.01%     67.89% # Type of FU issued
system.cpu.iq.FU_type_0::SimdShiftAcc               0      0.00%     67.89% # Type of FU issued
system.cpu.iq.FU_type_0::SimdDiv                    0      0.00%     67.89% # Type of FU issued
system.cpu.iq.FU_type_0::SimdSqrt                   0      0.00%     67.89% # Type of FU issued
system.cpu.iq.FU_type_0::SimdFloatAdd         1405579      7.66%     75.56% # Type of FU issued
system.cpu.iq.FU_type_0::SimdFloatAlu               0      0.00%     75.56% # Type of FU issued
system.cpu.iq.FU_type_0::SimdFloatCmp               0      0.00%     75.56% # Type of FU issued
system.cpu.iq.FU_type_0::SimdFloatCvt          702995      3.83%     79.39% # Type of FU issued
system.cpu.iq.FU_type_0::SimdFloatDiv               2      0.00%     79.39% # Type of FU issued
system.cpu.iq.FU_type_0::SimdFloatMisc              0      0.00%     79.39% # Type of FU issued
system.cpu.iq.FU_type_0::SimdFloatMult         984241      5.36%     84.75% # Type of FU issued
system.cpu.iq.FU_type_0::SimdFloatMultAcc            0      0.00%     84.75% # Type of FU issued
system.cpu.iq.FU_type_0::SimdFloatSqrt              0      0.00%     84.75% # Type of FU issued
system.cpu.iq.FU_type_0::SimdReduceAdd              0      0.00%     84.75% # Type of FU issued
system.cpu.iq.FU_type_0::SimdReduceAlu              0      0.00%     84.75% # Type of FU issued
system.cpu.iq.FU_type_0::SimdReduceCmp              0      0.00%     84.75% # Type of FU issued
system.cpu.iq.FU_type_0::SimdFloatReduceAdd            0      0.00%     84.75% # Type of FU issued
system.cpu.iq.FU_type_0::SimdFloatReduceCmp            0      0.00%     84.75% # Type of FU issued
system.cpu.iq.FU_type_0::SimdAes                    0      0.00%     84.75% # Type of FU issued
system.cpu.iq.FU_type_0::SimdAesMix                 0      0.00%     84.75% # Type of FU issued
system.cpu.iq.FU_type_0::SimdSha1Hash               0      0.00%     84.75% # Type of FU issued
system.cpu.iq.FU_type_0::SimdSha1Hash2              0      0.00%     84.75% # Type of FU issued
system.cpu.iq.FU_type_0::SimdSha256Hash             0      0.00%     84.75% # Type of FU issued
system.cpu.iq.FU_type_0::SimdSha256Hash2            0      0.00%     84.75% # Type of FU issued
system.cpu.iq.FU_type_0::SimdShaSigma2              0      0.00%     84.75% # Type of FU issued
system.cpu.iq.FU_type_0::SimdShaSigma3              0      0.00%     84.75% # Type of FU issued
system.cpu.iq.FU_type_0::SimdPredAlu                0      0.00%     84.75% # Type of FU issued
system.cpu.iq.FU_type_0::MemRead               752549      4.10%     88.85% # Type of FU issued
system.cpu.iq.FU_type_0::MemWrite              479114      2.61%     91.47% # Type of FU issued
system.cpu.iq.FU_type_0::FloatMemRead         1558096      8.49%     99.96% # Type of FU issued
system.cpu.iq.FU_type_0::FloatMemWrite           7631      0.04%    100.00% # Type of FU issued
system.cpu.iq.FU_type_0::IprAccess                  0      0.00%    100.00% # Type of FU issued
system.cpu.iq.FU_type_0::InstPrefetch               0      0.00%    100.00% # Type of FU issued
system.cpu.iq.FU_type_0::total               18346418                       # Type of FU issued
system.cpu.iq.fp_alu_accesses                 7359957                       # Number of floating point alu accesses
system.cpu.iq.fp_inst_queue_reads            14719718                       # Number of floating instruction queue reads
system.cpu.iq.fp_inst_queue_wakeup_accesses      7355869                       # Number of floating instruction queue wakeup accesses
system.cpu.iq.fp_inst_queue_writes            7412855                       # Number of floating instruction queue writes
system.cpu.iq.fu_busy_cnt                      159952                       # FU busy when requested
system.cpu.iq.fu_busy_rate                   0.008718                       # FU busy rate (busy events/executed inst)
system.cpu.iq.fu_full::No_OpClass                   0      0.00%      0.00% # attempts to use FU when none available
system.cpu.iq.fu_full::IntAlu                  157371     98.39%     98.39% # attempts to use FU when none available
system.cpu.iq.fu_full::IntMult                      0      0.00%     98.39% # attempts to use FU when none available
system.cpu.iq.fu_full::IntDiv                       0      0.00%     98.39% # attempts to use FU when none available
system.cpu.iq.fu_full::FloatAdd                     0      0.00%     98.39% # attempts to use FU when none available
system.cpu.iq.fu_full::FloatCmp                     0      0.00%     98.39% # attempts to use FU when none available
system.cpu.iq.fu_full::FloatCvt                     0      0.00%     98.39% # attempts to use FU when none available
system.cpu.iq.fu_full::FloatMult                    0      0.00%     98.39% # attempts to use FU when none available
system.cpu.iq.fu_full::FloatMultAcc                 0      0.00%     98.39% # attempts to use FU when none available
system.cpu.iq.fu_full::FloatDiv                     0      0.00%     98.39% # attempts to use FU when none available
system.cpu.iq.fu_full::FloatMisc                    0      0.00%     98.39% # attempts to use FU when none available
system.cpu.iq.fu_full::FloatSqrt                    0      0.00%     98.39% # attempts to use FU when none available
system.cpu.iq.fu_full::SimdAdd                      1      0.00%     98.39% # attempts to use FU when none available
system.cpu.iq.fu_full::SimdAddAcc                   0      0.00%     98.39% # attempts to use FU when none available
system.cpu.iq.fu_full::SimdAlu                     92      0.06%     98.44% # attempts to use FU when none available
system.cpu.iq.fu_full::SimdCmp                      0      0.00%     98.44% # attempts to use FU when none available
system.cpu.iq.fu_full::SimdCvt                     35      0.02%     98.47% # attempts to use FU when none available
system.cpu.iq.fu_full::SimdMisc                    12      0.01%     98.47% # attempts to use FU when none available
system.cpu.iq.fu_full::SimdMult                     0      0.00%     98.47% # attempts to use FU when none available
system.cpu.iq.fu_full::SimdMultAcc                  0      0.00%     98.47% # attempts to use FU when none available
system.cpu.iq.fu_full::SimdShift                   58      0.04%     98.51% # attempts to use FU when none available
system.cpu.iq.fu_full::SimdShiftAcc                 0      0.00%     98.51% # attempts to use FU when none available
system.cpu.iq.fu_full::SimdDiv                      0      0.00%     98.51% # attempts to use FU when none available
system.cpu.iq.fu_full::SimdSqrt                     0      0.00%     98.51% # attempts to use FU when none available
system.cpu.iq.fu_full::SimdFloatAdd                 0      0.00%     98.51% # attempts to use FU when none available
system.cpu.iq.fu_full::SimdFloatAlu                 0      0.00%     98.51% # attempts to use FU when none available
system.cpu.iq.fu_full::SimdFloatCmp                 0      0.00%     98.51% # attempts to use FU when none available
system.cpu.iq.fu_full::SimdFloatCvt                 0      0.00%     98.51% # attempts to use FU when none available
system.cpu.iq.fu_full::SimdFloatDiv                 0      0.00%     98.51% # attempts to use FU when none available
system.cpu.iq.fu_full::SimdFloatMisc                0      0.00%     98.51% # attempts to use FU when none available
system.cpu.iq.fu_full::SimdFloatMult                0      0.00%     98.51% # attempts to use FU when none available
system.cpu.iq.fu_full::SimdFloatMultAcc             0      0.00%     98.51% # attempts to use FU when none available
system.cpu.iq.fu_full::SimdFloatSqrt                0      0.00%     98.51% # attempts to use FU when none available
system.cpu.iq.fu_full::SimdReduceAdd                0      0.00%     98.51% # attempts to use FU when none available
system.cpu.iq.fu_full::SimdReduceAlu                0      0.00%     98.51% # attempts to use FU when none available
system.cpu.iq.fu_full::SimdReduceCmp                0      0.00%     98.51% # attempts to use FU when none available
system.cpu.iq.fu_full::SimdFloatReduceAdd            0      0.00%     98.51% # attempts to use FU when none available
system.cpu.iq.fu_full::SimdFloatReduceCmp            0      0.00%     98.51% # attempts to use FU when none available
system.cpu.iq.fu_full::SimdAes                      0      0.00%     98.51% # attempts to use FU when none available
system.cpu.iq.fu_full::SimdAesMix                   0      0.00%     98.51% # attempts to use FU when none available
system.cpu.iq.fu_full::SimdSha1Hash                 0      0.00%     98.51% # attempts to use FU when none available
system.cpu.iq.fu_full::SimdSha1Hash2                0      0.00%     98.51% # attempts to use FU when none available
system.cpu.iq.fu_full::SimdSha256Hash               0      0.00%     98.51% # attempts to use FU when none available
system.cpu.iq.fu_full::SimdSha256Hash2              0      0.00%     98.51% # attempts to use FU when none available
system.cpu.iq.fu_full::SimdShaSigma2                0      0.00%     98.51% # attempts to use FU when none available
system.cpu.iq.fu_full::SimdShaSigma3                0      0.00%     98.51% # attempts to use FU when none available
system.cpu.iq.fu_full::SimdPredAlu                  0      0.00%     98.51% # attempts to use FU when none available
system.cpu.iq.fu_full::MemRead                   1344      0.84%     99.35% # attempts to use FU when none available
system.cpu.iq.fu_full::MemWrite                   785      0.49%     99.84% # attempts to use FU when none available
system.cpu.iq.fu_full::FloatMemRead               117      0.07%     99.91% # attempts to use FU when none available
system.cpu.iq.fu_full::FloatMemWrite              137      0.09%    100.00% # attempts to use FU when none available
system.cpu.iq.fu_full::IprAccess                    0      0.00%    100.00% # attempts to use FU when none available
system.cpu.iq.fu_full::InstPrefetch                 0      0.00%    100.00% # attempts to use FU when none available
system.cpu.iq.int_alu_accesses               10828166                       # Number of integer alu accesses
system.cpu.iq.int_inst_queue_reads           27911676                       # Number of integer instruction queue reads
system.cpu.iq.int_inst_queue_wakeup_accesses     10950406                       # Number of integer instruction queue wakeup accesses
system.cpu.iq.int_inst_queue_writes          12187832                       # Number of integer instruction queue writes
system.cpu.iq.iqInstsAdded                   18756151                       # Number of instructions added to the IQ (excludes non-spec)
system.cpu.iq.iqInstsIssued                  18346418                       # Number of instructions issued
system.cpu.iq.iqNonSpecInstsAdded                  22                       # Number of non-speculative instructions added to the IQ
system.cpu.iq.iqSquashedInstsExamined          844376                       # Number of squashed instructions iterated over during squash; mainly for profiling
system.cpu.iq.iqSquashedInstsIssued              2622                       # Number of squashed instructions issued
system.cpu.iq.iqSquashedNonSpecRemoved              4                       # Number of squashed non-spec instructions that were removed
system.cpu.iq.iqSquashedOperandsExamined      1825837                       # Number of squashed operands that are examined and possibly removed from graph
system.cpu.iq.issued_per_cycle::samples       5775986                       # Number of insts issued each cycle
system.cpu.iq.issued_per_cycle::mean         3.176327                       # Number of insts issued each cycle
system.cpu.iq.issued_per_cycle::stdev        2.116888                       # Number of insts issued each cycle
system.cpu.iq.issued_per_cycle::underflows            0      0.00%      0.00% # Number of insts issued each cycle
system.cpu.iq.issued_per_cycle::0              621643     10.76%     10.76% # Number of insts issued each cycle
system.cpu.iq.issued_per_cycle::1              760138     13.16%     23.92% # Number of insts issued each cycle
system.cpu.iq.issued_per_cycle::2             1101232     19.07%     42.99% # Number of insts issued each cycle
system.cpu.iq.issued_per_cycle::3              904100     15.65%     58.64% # Number of insts issued each cycle
system.cpu.iq.issued_per_cycle::4              876807     15.18%     73.82% # Number of insts issued each cycle
system.cpu.iq.issued_per_cycle::5              481200      8.33%     82.15% # Number of insts issued each cycle
system.cpu.iq.issued_per_cycle::6              575475      9.96%     92.12% # Number of insts issued each cycle
system.cpu.iq.issued_per_cycle::7              337690      5.85%     97.96% # Number of insts issued each cycle
system.cpu.iq.issued_per_cycle::8              117701      2.04%    100.00% # Number of insts issued each cycle
system.cpu.iq.issued_per_cycle::overflows            0      0.00%    100.00% # Number of insts issued each cycle
system.cpu.iq.issued_per_cycle::min_value            0                       # Number of insts issued each cycle
system.cpu.iq.issued_per_cycle::max_value            8                       # Number of insts issued each cycle
system.cpu.iq.issued_per_cycle::total         5775986                       # Number of insts issued each cycle
system.cpu.iq.rate                           3.100739                       # Inst issue rate
system.cpu.iq.vec_alu_accesses                      0                       # Number of vector alu accesses
system.cpu.iq.vec_inst_queue_reads                  0                       # Number of vector instruction queue reads
system.cpu.iq.vec_inst_queue_wakeup_accesses            0                       # Number of vector instruction queue wakeup accesses
system.cpu.iq.vec_inst_queue_writes                 0                       # Number of vector instruction queue writes
system.cpu.memDep0.conflictingLoads              3956                       # Number of conflicting loads.
system.cpu.memDep0.conflictingStores             1815                       # Number of conflicting stores.
system.cpu.memDep0.insertedLoads              2322438                       # Number of loads inserted to the mem dependence unit.
system.cpu.memDep0.insertedStores              497327                       # Number of stores inserted to the mem dependence unit.
system.cpu.misc_regfile_reads                 6131153                       # number of misc regfile reads
system.cpu.misc_regfile_writes                     18                       # number of misc regfile writes
system.cpu.numCycles                          5916788                       # number of cpu cycles simulated
system.cpu.numWorkItemsCompleted                    0                       # number of work items this cpu completed
system.cpu.numWorkItemsStarted                      0                       # number of work items this cpu started
system.cpu.timesIdled                            1541                       # Number of times that the entire CPU went into an idle state and unscheduled itself
system.cpu.workload.numSyscalls                    57                       # Number of system calls
system.membus.snoop_filter.hit_multi_requests            0                       # Number of requests hitting in the snoop filter with multiple (>1) holders of the requested data.
system.membus.snoop_filter.hit_multi_snoops            0                       # Number of snoops hitting in the snoop filter with multiple (>1) holders of the requested data.
system.membus.snoop_filter.hit_single_requests         6490                       # Number of requests hitting in the snoop filter with a single holder of the requested data.
system.membus.snoop_filter.hit_single_snoops            0                       # Number of snoops hitting in the snoop filter with a single holder of the requested data.
system.membus.snoop_filter.tot_requests         21682                       # Total number of requests made to the snoop filter.
system.membus.snoop_filter.tot_snoops               0                       # Total number of snoops made to the snoop filter.
system.tol2bus.snoop_filter.hit_multi_requests            7                       # Number of requests hitting in the snoop filter with multiple (>1) holders of the requested data.
system.tol2bus.snoop_filter.hit_multi_snoops            0                       # Number of snoops hitting in the snoop filter with multiple (>1) holders of the requested data.
system.tol2bus.snoop_filter.hit_single_requests        16359                       # Number of requests hitting in the snoop filter with a single holder of the requested data.
system.tol2bus.snoop_filter.hit_single_snoops          513                       # Number of snoops hitting in the snoop filter with a single holder of the requested data.
system.tol2bus.snoop_filter.tot_requests        33742                       # Total number of requests made to the snoop filter.
system.tol2bus.snoop_filter.tot_snoops            513                       # Total number of snoops made to the snoop filter.
system.clk_domain.clock                           250                       # Clock period in ticks
system.cpu.branchPred.lookups                 1226617                       # Number of BP lookups
system.cpu.branchPred.condPredicted            773947                       # Number of conditional branches predicted
system.cpu.branchPred.condIncorrect             17710                       # Number of conditional branches incorrect
system.cpu.branchPred.BTBLookups               404650                       # Number of BTB lookups
system.cpu.branchPred.BTBHits                  393817                       # Number of BTB hits
system.cpu.branchPred.BTBHitPct             97.322872                       # BTB Hit Percentage
system.cpu.branchPred.RASUsed                  145053                       # Number of times the RAS was used to get a target.
system.cpu.branchPred.RASIncorrect                  4                       # Number of incorrect RAS predictions.
system.cpu.branchPred.indirectLookups          149622                       # Number of indirect predictor lookups.
system.cpu.branchPred.indirectHits             141873                       # Number of indirect target hits.
system.cpu.branchPred.indirectMisses             7749                       # Number of indirect misses.
system.cpu.branchPred.indirectMispredicted         1209                       # Number of mispredicted indirect branches.
system.cpu.commit.commitSquashedInsts          834638                       # The number of squashed insts skipped by commit
system.cpu.commit.commitNonSpecStalls              18                       # The number of times commit has been forced to stall to communicate backwards
system.cpu.commit.branchMispredicts             16551                       # The number of times a branch was mispredicted
system.cpu.commit.numCommittedDist::samples      5660102                       # Number of insts commited each cycle
system.cpu.commit.numCommittedDist::mean     3.164551                       # Number of insts commited each cycle
system.cpu.commit.numCommittedDist::stdev     2.892109                       # Number of insts commited each cycle
system.cpu.commit.numCommittedDist::underflows            0      0.00%      0.00% # Number of insts commited each cycle
system.cpu.commit.numCommittedDist::0          859430     15.18%     15.18% # Number of insts commited each cycle
system.cpu.commit.numCommittedDist::1         1627303     28.75%     43.93% # Number of insts commited each cycle
system.cpu.commit.numCommittedDist::2          751009     13.27%     57.20% # Number of insts commited each cycle
system.cpu.commit.numCommittedDist::3          466611      8.24%     65.45% # Number of insts commited each cycle
system.cpu.commit.numCommittedDist::4          156799      2.77%     68.22% # Number of insts commited each cycle
system.cpu.commit.numCommittedDist::5          297121      5.25%     73.47% # Number of insts commited each cycle
system.cpu.commit.numCommittedDist::6          157037      2.77%     76.24% # Number of insts commited each cycle
system.cpu.commit.numCommittedDist::7          430834      7.61%     83.85% # Number of insts commited each cycle
system.cpu.commit.numCommittedDist::8          913958     16.15%    100.00% # Number of insts commited each cycle
system.cpu.commit.numCommittedDist::overflows            0      0.00%    100.00% # Number of insts commited each cycle
system.cpu.commit.numCommittedDist::min_value            0                       # Number of insts commited each cycle
system.cpu.commit.numCommittedDist::max_value            8                       # Number of insts commited each cycle
system.cpu.commit.numCommittedDist::total      5660102                       # Number of insts commited each cycle
system.cpu.commit.instsCommitted             10000000                       # Number of instructions committed
system.cpu.commit.opsCommitted               17911679                       # Number of ops (including micro ops) committed
system.cpu.commit.memRefs                     2712967                       # Number of memory references committed
system.cpu.commit.loads                       2242684                       # Number of loads committed
system.cpu.commit.amos                              0                       # Number of atomic instructions committed
system.cpu.commit.membars                           0                       # Number of memory barriers committed
system.cpu.commit.branches                    1090188                       # Number of branches committed
system.cpu.commit.vector                            0                       # Number of committed Vector instructions.
system.cpu.commit.floating                    7334339                       # Number of committed floating point instructions.
system.cpu.commit.integer                    12675584                       # Number of committed integer instructions.
system.cpu.commit.functionCalls                142859                       # Number of function calls committed.
system.cpu.commit.committedInstType_0::No_OpClass       304874      1.70%      1.70% # Class of committed instruction
system.cpu.commit.committedInstType_0::IntAlu      9580380     53.49%     55.19% # Class of committed instruction
system.cpu.commit.committedInstType_0::IntMult         1379      0.01%     55.20% # Class of committed instruction
system.cpu.commit.committedInstType_0::IntDiv        97485      0.54%     55.74% # Class of committed instruction
system.cpu.commit.committedInstType_0::FloatAdd       422338      2.36%     58.10% # Class of committed instruction
system.cpu.commit.committedInstType_0::FloatCmp            0      0.00%     58.10% # Class of committed instruction
system.cpu.commit.committedInstType_0::FloatCvt           32      0.00%     58.10% # Class of committed instruction
system.cpu.commit.committedInstType_0::FloatMult            0      0.00%     58.10% # Class of committed instruction
system.cpu.commit.committedInstType_0::FloatMultAcc            0      0.00%     58.10% # Class of committed instruction
system.cpu.commit.committedInstType_0::FloatDiv            0      0.00%     58.10% # Class of committed instruction
system.cpu.commit.committedInstType_0::FloatMisc            0      0.00%     58.10% # Class of committed instruction
system.cpu.commit.committedInstType_0::FloatSqrt            0      0.00%     58.10% # Class of committed instruction
system.cpu.commit.committedInstType_0::SimdAdd         2262      0.01%     58.11% # Class of committed instruction
system.cpu.commit.committedInstType_0::SimdAddAcc            0      0.00%     58.11% # Class of committed instruction
system.cpu.commit.committedInstType_0::SimdAlu       846514      4.73%     62.84% # Class of committed instruction
system.cpu.commit.committedInstType_0::SimdCmp           12      0.00%     62.84% # Class of committed instruction
system.cpu.commit.committedInstType_0::SimdCvt         4818      0.03%     62.86% # Class of committed instruction
system.cpu.commit.committedInstType_0::SimdMisc       846633      4.73%     67.59% # Class of committed instruction
system.cpu.commit.committedInstType_0::SimdMult           64      0.00%     67.59% # Class of committed instruction
system.cpu.commit.committedInstType_0::SimdMultAcc            0      0.00%     67.59% # Class of committed instruction
system.cpu.commit.committedInstType_0::SimdShift          884      0.00%     67.60% # Class of committed instruction
system.cpu.commit.committedInstType_0::SimdShiftAcc            0      0.00%     67.60% # Class of committed instruction
system.cpu.commit.committedInstType_0::SimdDiv            0      0.00%     67.60% # Class of committed instruction
system.cpu.commit.committedInstType_0::SimdSqrt            0      0.00%     67.60% # Class of committed instruction
system.cpu.commit.committedInstType_0::SimdFloatAdd      1405003      7.84%     75.44% # Class of committed instruction
system.cpu.commit.committedInstType_0::SimdFloatAlu            0      0.00%     75.44% # Class of committed instruction
system.cpu.commit.committedInstType_0::SimdFloatCmp            0      0.00%     75.44% # Class of committed instruction
system.cpu.commit.committedInstType_0::SimdFloatCvt       702543      3.92%     79.36% # Class of committed instruction
system.cpu.commit.committedInstType_0::SimdFloatDiv            2      0.00%     79.36% # Class of committed instruction
system.cpu.commit.committedInstType_0::SimdFloatMisc            0      0.00%     79.36% # Class of committed instruction
system.cpu.commit.committedInstType_0::SimdFloatMult       983489      5.49%     84.85% # Class of committed instruction
system.cpu.commit.committedInstType_0::SimdFloatMultAcc            0      0.00%     84.85% # Class of committed instruction
system.cpu.commit.committedInstType_0::SimdFloatSqrt            0      0.00%     84.85% # Class of committed instruction
system.cpu.commit.committedInstType_0::SimdReduceAdd            0      0.00%     84.85% # Class of committed instruction
system.cpu.commit.committedInstType_0::SimdReduceAlu            0      0.00%     84.85% # Class of committed instruction
system.cpu.commit.committedInstType_0::SimdReduceCmp            0      0.00%     84.85% # Class of committed instruction
system.cpu.commit.committedInstType_0::SimdFloatReduceAdd            0      0.00%     84.85% # Class of committed instruction
system.cpu.commit.committedInstType_0::SimdFloatReduceCmp            0      0.00%     84.85% # Class of committed instruction
system.cpu.commit.committedInstType_0::SimdAes            0      0.00%     84.85% # Class of committed instruction
system.cpu.commit.committedInstType_0::SimdAesMix            0      0.00%     84.85% # Class of committed instruction
system.cpu.commit.committedInstType_0::SimdSha1Hash            0      0.00%     84.85% # Class of committed instruction
system.cpu.commit.committedInstType_0::SimdSha1Hash2            0      0.00%     84.85% # Class of committed instruction
system.cpu.commit.committedInstType_0::SimdSha256Hash            0      0.00%     84.85% # Class of committed instruction
system.cpu.commit.committedInstType_0::SimdSha256Hash2            0      0.00%     84.85% # Class of committed instruction
system.cpu.commit.committedInstType_0::SimdShaSigma2            0      0.00%     84.85% # Class of committed instruction
system.cpu.commit.committedInstType_0::SimdShaSigma3            0      0.00%     84.85% # Class of committed instruction
system.cpu.commit.committedInstType_0::SimdPredAlu            0      0.00%     84.85% # Class of committed instruction
system.cpu.commit.committedInstType_0::MemRead       692034      3.86%     88.72% # Class of committed instruction
system.cpu.commit.committedInstType_0::MemWrite       463876      2.59%     91.31% # Class of committed instruction
system.cpu.commit.committedInstType_0::FloatMemRead      1550650      8.66%     99.96% # Class of committed instruction
system.cpu.commit.committedInstType_0::FloatMemWrite         6407      0.04%    100.00% # Class of committed instruction
system.cpu.commit.committedInstType_0::IprAccess            0      0.00%    100.00% # Class of committed instruction
system.cpu.commit.committedInstType_0::InstPrefetch            0      0.00%    100.00% # Class of committed instruction
system.cpu.commit.committedInstType_0::total     17911679                       # Class of committed instruction
system.cpu.commit.commitEligibleSamples        913958                       # number cycles where commit BW limit reached
system.cpu.dcache.demand_hits::.cpu.data      2598444                       # number of demand (read+write) hits
system.cpu.dcache.demand_hits::total          2598444                       # number of demand (read+write) hits
system.cpu.dcache.overall_hits::.cpu.data      2598444                       # number of overall hits
system.cpu.dcache.overall_hits::total         2598444                       # number of overall hits
system.cpu.dcache.demand_misses::.cpu.data        26604                       # number of demand (read+write) misses
system.cpu.dcache.demand_misses::total          26604                       # number of demand (read+write) misses
system.cpu.dcache.overall_misses::.cpu.data        26604                       # number of overall misses
system.cpu.dcache.overall_misses::total         26604                       # number of overall misses
system.cpu.dcache.demand_miss_latency::.cpu.data   1558106494                       # number of demand (read+write) miss cycles
system.cpu.dcache.demand_miss_latency::total   1558106494                       # number of demand (read+write) miss cycles
system.cpu.dcache.overall_miss_latency::.cpu.data   1558106494                       # number of overall miss cycles
system.cpu.dcache.overall_miss_latency::total   1558106494                       # number of overall miss cycles
system.cpu.dcache.demand_accesses::.cpu.data      2625048                       # number of demand (read+write) accesses
system.cpu.dcache.demand_accesses::total      2625048                       # number of demand (read+write) accesses
system.cpu.dcache.overall_accesses::.cpu.data      2625048                       # number of overall (read+write) accesses
system.cpu.dcache.overall_accesses::total      2625048                       # number of overall (read+write) accesses
system.cpu.dcache.demand_miss_rate::.cpu.data     0.010135                       # miss rate for demand accesses
system.cpu.dcache.demand_miss_rate::total     0.010135                       # miss rate for demand accesses
system.cpu.dcache.overall_miss_rate::.cpu.data     0.010135                       # miss rate for overall accesses
system.cpu.dcache.overall_miss_rate::total     0.010135                       # miss rate for overall accesses
system.cpu.dcache.demand_avg_miss_latency::.cpu.data 58566.625094                       # average overall miss latency
system.cpu.dcache.demand_avg_miss_latency::total 58566.625094                       # average overall miss latency
system.cpu.dcache.overall_avg_miss_latency::.cpu.data 58566.625094                       # average overall miss latency
system.cpu.dcache.overall_avg_miss_latency::total 58566.625094                       # average overall miss latency
system.cpu.dcache.blocked_cycles::no_mshrs        19855                       # number of cycles access was blocked
system.cpu.dcache.blocked_cycles::no_targets            4                       # number of cycles access was blocked
system.cpu.dcache.blocked::no_mshrs               459                       # number of cycles access was blocked
system.cpu.dcache.blocked::no_targets               1                       # number of cycles access was blocked
system.cpu.dcache.avg_blocked_cycles::no_mshrs    43.257081                       # average number of cycles each access was blocked
system.cpu.dcache.avg_blocked_cycles::no_targets            4                       # average number of cycles each access was blocked
system.cpu.dcache.writebacks::.writebacks        11026                       # number of writebacks
system.cpu.dcache.writebacks::total             11026                       # number of writebacks
system.cpu.dcache.demand_mshr_hits::.cpu.data        11860                       # number of demand (read+write) MSHR hits
system.cpu.dcache.demand_mshr_hits::total        11860                       # number of demand (read+write) MSHR hits
system.cpu.dcache.overall_mshr_hits::.cpu.data        11860                       # number of overall MSHR hits
system.cpu.dcache.overall_mshr_hits::total        11860                       # number of overall MSHR hits
system.cpu.dcache.demand_mshr_misses::.cpu.data        14744                       # number of demand (read+write) MSHR misses
system.cpu.dcache.demand_mshr_misses::total        14744                       # number of demand (read+write) MSHR misses
system.cpu.dcache.overall_mshr_misses::.cpu.data        14744                       # number of overall MSHR misses
system.cpu.dcache.overall_mshr_misses::total        14744                       # number of overall MSHR misses
system.cpu.dcache.demand_mshr_miss_latency::.cpu.data    947485494                       # number of demand (read+write) MSHR miss cycles
system.cpu.dcache.demand_mshr_miss_latency::total    947485494                       # number of demand (read+write) MSHR miss cycles
system.cpu.dcache.overall_mshr_miss_latency::.cpu.data    947485494                       # number of overall MSHR miss cycles
system.cpu.dcache.overall_mshr_miss_latency::total    947485494                       # number of overall MSHR miss cycles
system.cpu.dcache.demand_mshr_miss_rate::.cpu.data     0.005617                       # mshr miss rate for demand accesses
system.cpu.dcache.demand_mshr_miss_rate::total     0.005617                       # mshr miss rate for demand accesses
system.cpu.dcache.overall_mshr_miss_rate::.cpu.data     0.005617                       # mshr miss rate for overall accesses
system.cpu.dcache.overall_mshr_miss_rate::total     0.005617                       # mshr miss rate for overall accesses
system.cpu.dcache.demand_avg_mshr_miss_latency::.cpu.data 64262.445334                       # average overall mshr miss latency
system.cpu.dcache.demand_avg_mshr_miss_latency::total 64262.445334                       # average overall mshr miss latency
system.cpu.dcache.overall_avg_mshr_miss_latency::.cpu.data 64262.445334                       # average overall mshr miss latency
system.cpu.dcache.overall_avg_mshr_miss_latency::total 64262.445334                       # average overall mshr miss latency
system.cpu.dcache.replacements                  14232                       # number of replacements
system.cpu.dcache.ReadReq_hits::.cpu.data      2138847                       # number of ReadReq hits
system.cpu.dcache.ReadReq_hits::total         2138847                       # number of ReadReq hits
system.cpu.dcache.ReadReq_misses::.cpu.data        15896                       # number of ReadReq misses
system.cpu.dcache.ReadReq_misses::total         15896                       # number of ReadReq misses
system.cpu.dcache.ReadReq_miss_latency::.cpu.data    804443500                       # number of ReadReq miss cycles
system.cpu.dcache.ReadReq_miss_latency::total    804443500                       # number of ReadReq miss cycles
system.cpu.dcache.ReadReq_accesses::.cpu.data      2154743                       # number of ReadReq accesses(hits+misses)
system.cpu.dcache.ReadReq_accesses::total      2154743                       # number of ReadReq accesses(hits+misses)
system.cpu.dcache.ReadReq_miss_rate::.cpu.data     0.007377                       # miss rate for ReadReq accesses
system.cpu.dcache.ReadReq_miss_rate::total     0.007377                       # miss rate for ReadReq accesses
system.cpu.dcache.ReadReq_avg_miss_latency::.cpu.data 50606.662053                       # average ReadReq miss latency
system.cpu.dcache.ReadReq_avg_miss_latency::total 50606.662053                       # average ReadReq miss latency
system.cpu.dcache.ReadReq_mshr_hits::.cpu.data        11856                       # number of ReadReq MSHR hits
system.cpu.dcache.ReadReq_mshr_hits::total        11856                       # number of ReadReq MSHR hits
system.cpu.dcache.ReadReq_mshr_misses::.cpu.data         4040                       # number of ReadReq MSHR misses
system.cpu.dcache.ReadReq_mshr_misses::total         4040                       # number of ReadReq MSHR misses
system.cpu.dcache.ReadReq_mshr_miss_latency::.cpu.data    204705000                       # number of ReadReq MSHR miss cycles
system.cpu.dcache.ReadReq_mshr_miss_latency::total    204705000                       # number of ReadReq MSHR miss cycles
system.cpu.dcache.ReadReq_mshr_miss_rate::.cpu.data     0.001875                       # mshr miss rate for ReadReq accesses
system.cpu.dcache.ReadReq_mshr_miss_rate::total     0.001875                       # mshr miss rate for ReadReq accesses
system.cpu.dcache.ReadReq_avg_mshr_miss_latency::.cpu.data 50669.554455                       # average ReadReq mshr miss latency
system.cpu.dcache.ReadReq_avg_mshr_miss_latency::total 50669.554455                       # average ReadReq mshr miss latency
system.cpu.dcache.WriteReq_hits::.cpu.data       459597                       # number of WriteReq hits
system.cpu.dcache.WriteReq_hits::total         459597                       # number of WriteReq hits
system.cpu.dcache.WriteReq_misses::.cpu.data        10708                       # number of WriteReq misses
system.cpu.dcache.WriteReq_misses::total        10708                       # number of WriteReq misses
system.cpu.dcache.WriteReq_miss_latency::.cpu.data    753662994                       # number of WriteReq miss cycles
system.cpu.dcache.WriteReq_miss_latency::total    753662994                       # number of WriteReq miss cycles
system.cpu.dcache.WriteReq_accesses::.cpu.data       470305                       # number of WriteReq accesses(hits+misses)
system.cpu.dcache.WriteReq_accesses::total       470305                       # number of WriteReq accesses(hits+misses)
system.cpu.dcache.WriteReq_miss_rate::.cpu.data     0.022768                       # miss rate for WriteReq accesses
system.cpu.dcache.WriteReq_miss_rate::total     0.022768                       # miss rate for WriteReq accesses
system.cpu.dcache.WriteReq_avg_miss_latency::.cpu.data 70383.170900                       # average WriteReq miss latency
system.cpu.dcache.WriteReq_avg_miss_latency::total 70383.170900                       # average WriteReq miss latency
system.cpu.dcache.WriteReq_mshr_hits::.cpu.data            4                       # number of WriteReq MSHR hits
system.cpu.dcache.WriteReq_mshr_hits::total            4                       # number of WriteReq MSHR hits
system.cpu.dcache.WriteReq_mshr_misses::.cpu.data        10704                       # number of WriteReq MSHR misses
system.cpu.dcache.WriteReq_mshr_misses::total        10704                       # number of WriteReq MSHR misses
system.cpu.dcache.WriteReq_mshr_miss_latency::.cpu.data    742780494                       # number of WriteReq MSHR miss cycles
system.cpu.dcache.WriteReq_mshr_miss_latency::total    742780494                       # number of WriteReq MSHR miss cycles
system.cpu.dcache.WriteReq_mshr_miss_rate::.cpu.data     0.022760                       # mshr miss rate for WriteReq accesses
system.cpu.dcache.WriteReq_mshr_miss_rate::total     0.022760                       # mshr miss rate for WriteReq accesses
system.cpu.dcache.WriteReq_avg_mshr_miss_latency::.cpu.data 69392.796525                       # average WriteReq mshr miss latency
system.cpu.dcache.WriteReq_avg_mshr_miss_latency::total 69392.796525                       # average WriteReq mshr miss latency
system.cpu.dcache.power_state.pwrStateResidencyTicks::UNDEFINED   2958393500                       # Cumulative time (in ticks) in various power states
system.cpu.dcache.tags.tagsinuse           506.596016                       # Cycle average of tags in use
system.cpu.dcache.tags.total_refs             2613188                       # Total number of references to valid blocks.
system.cpu.dcache.tags.sampled_refs             14744                       # Sample count of references to valid blocks.
system.cpu.dcache.tags.avg_refs            177.237385                       # Average number of references to valid blocks.
system.cpu.dcache.tags.warmup_cycle            163000                       # Cycle when the warmup percentage was hit.
system.cpu.dcache.tags.occ_blocks::.cpu.data   506.596016                       # Average occupied blocks per requestor
system.cpu.dcache.tags.occ_percent::.cpu.data     0.989445                       # Average percentage of cache occupancy
system.cpu.dcache.tags.occ_percent::total     0.989445                       # Average percentage of cache occupancy
system.cpu.dcache.tags.occ_task_id_blocks::1024          512                       # Occupied blocks per task id
system.cpu.dcache.tags.age_task_id_blocks_1024::0           38                       # Occupied blocks per task id
system.cpu.dcache.tags.age_task_id_blocks_1024::1          326                       # Occupied blocks per task id
system.cpu.dcache.tags.age_task_id_blocks_1024::2          140                       # Occupied blocks per task id
system.cpu.dcache.tags.age_task_id_blocks_1024::3            8                       # Occupied blocks per task id
system.cpu.dcache.tags.occ_task_id_percent::1024            1                       # Percentage of cache occupancy per task id
system.cpu.dcache.tags.tag_accesses           5264840                       # Number of tag accesses
system.cpu.dcache.tags.data_accesses          5264840                       # Number of data accesses
system.cpu.dcache.tags.power_state.pwrStateResidencyTicks::UNDEFINED   2958393500                       # Cumulative time (in ticks) in various power states
system.cpu.decode.idleCycles                   713060                       # Number of cycles decode is idle
system.cpu.decode.blockedCycles               2639408                       # Number of cycles decode is blocked
system.cpu.decode.runCycles                   1102417                       # Number of cycles decode is running
system.cpu.decode.unblockCycles               1304067                       # Number of cycles decode is unblocking
system.cpu.decode.squashCycles                  17034                       # Number of cycles decode is squashing
system.cpu.decode.branchResolved               376710                       # Number of times decode resolved a  branch
system.cpu.decode.branchMispred                  1585                       # Number of times decode detected a branch misprediction
system.cpu.decode.decodedInsts               18957645                       # Number of instructions handled by decode
system.cpu.decode.squashedInsts                  7747                       # Number of squashed instructions handled by decode
system.cpu.dtb.rdAccesses                     2303328                       # TLB accesses on read requests
system.cpu.dtb.wrAccesses                      485462                       # TLB accesses on write requests
system.cpu.dtb.rdMisses                           606                       # TLB misses on read requests
system.cpu.dtb.wrMisses                           676                       # TLB misses on write requests
system.cpu.dtb.walker.power_state.pwrStateResidencyTicks::UNDEFINED   2958393500                       # Cumulative time (in ticks) in various power states
system.cpu.dtb_walker_cache.blocked_cycles::no_mshrs            0                       # number of cycles access was blocked
system.cpu.dtb_walker_cache.blocked_cycles::no_targets            0                       # number of cycles access was blocked
system.cpu.dtb_walker_cache.blocked::no_mshrs            0                       # number of cycles access was blocked
system.cpu.dtb_walker_cache.blocked::no_targets            0                       # number of cycles access was blocked
system.cpu.dtb_walker_cache.avg_blocked_cycles::no_mshrs          nan                       # average number of cycles each access was blocked
system.cpu.dtb_walker_cache.avg_blocked_cycles::no_targets          nan                       # average number of cycles each access was blocked
system.cpu.dtb_walker_cache.replacements            0                       # number of replacements
system.cpu.dtb_walker_cache.power_state.pwrStateResidencyTicks::UNDEFINED   2958393500                       # Cumulative time (in ticks) in various power states
system.cpu.dtb_walker_cache.tags.tagsinuse            0                       # Cycle average of tags in use
system.cpu.dtb_walker_cache.tags.total_refs            0                       # Total number of references to valid blocks.
system.cpu.dtb_walker_cache.tags.sampled_refs            0                       # Sample count of references to valid blocks.
system.cpu.dtb_walker_cache.tags.avg_refs          nan                       # Average number of references to valid blocks.
system.cpu.dtb_walker_cache.tags.warmup_cycle            0                       # Cycle when the warmup percentage was hit.
system.cpu.dtb_walker_cache.tags.tag_accesses            0                       # Number of tag accesses
system.cpu.dtb_walker_cache.tags.data_accesses            0                       # Number of data accesses
system.cpu.dtb_walker_cache.tags.power_state.pwrStateResidencyTicks::UNDEFINED   2958393500                       # Cumulative time (in ticks) in various power states
system.cpu.fetch.icacheStallCycles            1330899                       # Number of cycles fetch is stalled on an Icache miss
system.cpu.fetch.insts                       10522605                       # Number of instructions fetch has processed
system.cpu.fetch.branches                     1226617                       # Number of branches that fetch encountered
system.cpu.fetch.predictedBranches             680743                       # Number of branches that fetch has predicted taken
system.cpu.fetch.cycles                       4422706                       # Number of cycles fetch has run and was not squashing or blocked
system.cpu.fetch.squashCycles                   37160                       # Number of cycles fetch has spent squashing
system.cpu.fetch.miscStallCycles                  480                       # Number of cycles fetch has spent waiting on interrupts,or bad addresses, or out of MSHRs
system.cpu.fetch.pendingTrapStallCycles          3297                       # Number of stall cycles due to pending traps
system.cpu.fetch.pendingQuiesceStallCycles            9                       # Number of stall cycles due to pending quiesce instructions
system.cpu.fetch.icacheWaitRetryStallCycles           15                       # Number of stall cycles due to full MSHR
system.cpu.fetch.cacheLines                   1256483                       # Number of cache lines fetched
system.cpu.fetch.icacheSquashes                  4682                       # Number of outstanding Icache misses that were squashed
system.cpu.fetch.nisnDist::samples            5775986                       # Number of instructions fetched each cycle (Total)
system.cpu.fetch.nisnDist::mean              3.336269                       # Number of instructions fetched each cycle (Total)
system.cpu.fetch.nisnDist::stdev             3.563633                       # Number of instructions fetched each cycle (Total)
system.cpu.fetch.nisnDist::underflows               0      0.00%      0.00% # Number of instructions fetched each cycle (Total)
system.cpu.fetch.nisnDist::0                  2563613     44.38%     44.38% # Number of instructions fetched each cycle (Total)
system.cpu.fetch.nisnDist::1                   267310      4.63%     49.01% # Number of instructions fetched each cycle (Total)
system.cpu.fetch.nisnDist::2                   376464      6.52%     55.53% # Number of instructions fetched each cycle (Total)
system.cpu.fetch.nisnDist::3                   116770      2.02%     57.55% # Number of instructions fetched each cycle (Total)
system.cpu.fetch.nisnDist::4                   225849      3.91%     61.46% # Number of instructions fetched each cycle (Total)
system.cpu.fetch.nisnDist::5                   122494      2.12%     63.58% # Number of instructions fetched each cycle (Total)
system.cpu.fetch.nisnDist::6                    90234      1.56%     65.14% # Number of instructions fetched each cycle (Total)
system.cpu.fetch.nisnDist::7                   263591      4.56%     69.71% # Number of instructions fetched each cycle (Total)
system.cpu.fetch.nisnDist::8                  1749661     30.29%    100.00% # Number of instructions fetched each cycle (Total)
system.cpu.fetch.nisnDist::overflows                0      0.00%    100.00% # Number of instructions fetched each cycle (Total)
system.cpu.fetch.nisnDist::min_value                0                       # Number of instructions fetched each cycle (Total)
system.cpu.fetch.nisnDist::max_value                8                       # Number of instructions fetched each cycle (Total)
system.cpu.fetch.nisnDist::total              5775986                       # Number of instructions fetched each cycle (Total)
system.cpu.fetch.branchRate                  0.207311                       # Number of branch fetches per cycle
system.cpu.fetch.rate                        1.778432                       # Number of inst fetches per cycle
system.cpu.icache.demand_hits::.cpu.inst      1253106                       # number of demand (read+write) hits
system.cpu.icache.demand_hits::total          1253106                       # number of demand (read+write) hits
system.cpu.icache.overall_hits::.cpu.inst      1253106                       # number of overall hits
system.cpu.icache.overall_hits::total         1253106                       # number of overall hits
system.cpu.icache.demand_misses::.cpu.inst         3376                       # number of demand (read+write) misses
system.cpu.icache.demand_misses::total           3376                       # number of demand (read+write) misses
system.cpu.icache.overall_misses::.cpu.inst         3376                       # number of overall misses
system.cpu.icache.overall_misses::total          3376                       # number of overall misses
system.cpu.icache.demand_miss_latency::.cpu.inst    200270000                       # number of demand (read+write) miss cycles
system.cpu.icache.demand_miss_latency::total    200270000                       # number of demand (read+write) miss cycles
system.cpu.icache.overall_miss_latency::.cpu.inst    200270000                       # number of overall miss cycles
system.cpu.icache.overall_miss_latency::total    200270000                       # number of overall miss cycles
system.cpu.icache.demand_accesses::.cpu.inst      1256482                       # number of demand (read+write) accesses
system.cpu.icache.demand_accesses::total      1256482                       # number of demand (read+write) accesses
system.cpu.icache.overall_accesses::.cpu.inst      1256482                       # number of overall (read+write) accesses
system.cpu.icache.overall_accesses::total      1256482                       # number of overall (read+write) accesses
system.cpu.icache.demand_miss_rate::.cpu.inst     0.002687                       # miss rate for demand accesses
system.cpu.icache.demand_miss_rate::total     0.002687                       # miss rate for demand accesses
system.cpu.icache.overall_miss_rate::.cpu.inst     0.002687                       # miss rate for overall accesses
system.cpu.icache.overall_miss_rate::total     0.002687                       # miss rate for overall accesses
system.cpu.icache.demand_avg_miss_latency::.cpu.inst 59321.682464                       # average overall miss latency
system.cpu.icache.demand_avg_miss_latency::total 59321.682464                       # average overall miss latency
system.cpu.icache.overall_avg_miss_latency::.cpu.inst 59321.682464                       # average overall miss latency
system.cpu.icache.overall_avg_miss_latency::total 59321.682464                       # average overall miss latency
system.cpu.icache.blocked_cycles::no_mshrs          690                       # number of cycles access was blocked
system.cpu.icache.blocked_cycles::no_targets            0                       # number of cycles access was blocked
system.cpu.icache.blocked::no_mshrs                17                       # number of cycles access was blocked
system.cpu.icache.blocked::no_targets               0                       # number of cycles access was blocked
system.cpu.icache.avg_blocked_cycles::no_mshrs    40.588235                       # average number of cycles each access was blocked
system.cpu.icache.avg_blocked_cycles::no_targets          nan                       # average number of cycles each access was blocked
system.cpu.icache.writebacks::.writebacks         2127                       # number of writebacks
system.cpu.icache.writebacks::total              2127                       # number of writebacks
system.cpu.icache.demand_mshr_hits::.cpu.inst          737                       # number of demand (read+write) MSHR hits
system.cpu.icache.demand_mshr_hits::total          737                       # number of demand (read+write) MSHR hits
system.cpu.icache.overall_mshr_hits::.cpu.inst          737                       # number of overall MSHR hits
system.cpu.icache.overall_mshr_hits::total          737                       # number of overall MSHR hits
system.cpu.icache.demand_mshr_misses::.cpu.inst         2639                       # number of demand (read+write) MSHR misses
system.cpu.icache.demand_mshr_misses::total         2639                       # number of demand (read+write) MSHR misses
system.cpu.icache.overall_mshr_misses::.cpu.inst         2639                       # number of overall MSHR misses
system.cpu.icache.overall_mshr_misses::total         2639                       # number of overall MSHR misses
system.cpu.icache.demand_mshr_miss_latency::.cpu.inst    158378500                       # number of demand (read+write) MSHR miss cycles
system.cpu.icache.demand_mshr_miss_latency::total    158378500                       # number of demand (read+write) MSHR miss cycles
system.cpu.icache.overall_mshr_miss_latency::.cpu.inst    158378500                       # number of overall MSHR miss cycles
system.cpu.icache.overall_mshr_miss_latency::total    158378500                       # number of overall MSHR miss cycles
system.cpu.icache.demand_mshr_miss_rate::.cpu.inst     0.002100                       # mshr miss rate for demand accesses
system.cpu.icache.demand_mshr_miss_rate::total     0.002100                       # mshr miss rate for demand accesses
system.cpu.icache.overall_mshr_miss_rate::.cpu.inst     0.002100                       # mshr miss rate for overall accesses
system.cpu.icache.overall_mshr_miss_rate::total     0.002100                       # mshr miss rate for overall accesses
system.cpu.icache.demand_avg_mshr_miss_latency::.cpu.inst 60014.588859                       # average overall mshr miss latency
system.cpu.icache.demand_avg_mshr_miss_latency::total 60014.588859                       # average overall mshr miss latency
system.cpu.icache.overall_avg_mshr_miss_latency::.cpu.inst 60014.588859                       # average overall mshr miss latency
system.cpu.icache.overall_avg_mshr_miss_latency::total 60014.588859                       # average overall mshr miss latency
system.cpu.icache.replacements                   2127                       # number of replacements
system.cpu.icache.ReadReq_hits::.cpu.inst      1253106                       # number of ReadReq hits
system.cpu.icache.ReadReq_hits::total         1253106                       # number of ReadReq hits
system.cpu.icache.ReadReq_misses::.cpu.inst         3376                       # number of ReadReq misses
system.cpu.icache.ReadReq_misses::total          3376                       # number of ReadReq misses
system.cpu.icache.ReadReq_miss_latency::.cpu.inst    200270000                       # number of ReadReq miss cycles
system.cpu.icache.ReadReq_miss_latency::total    200270000                       # number of ReadReq miss cycles
system.cpu.icache.ReadReq_accesses::.cpu.inst      1256482                       # number of ReadReq accesses(hits+misses)
system.cpu.icache.ReadReq_accesses::total      1256482                       # number of ReadReq accesses(hits+misses)
system.cpu.icache.ReadReq_miss_rate::.cpu.inst     0.002687                       # miss rate for ReadReq accesses
system.cpu.icache.ReadReq_miss_rate::total     0.002687                       # miss rate for ReadReq accesses
system.cpu.icache.ReadReq_avg_miss_latency::.cpu.inst 59321.682464                       # average ReadReq miss latency
system.cpu.icache.ReadReq_avg_miss_latency::total 59321.682464                       # average ReadReq miss latency
system.cpu.icache.ReadReq_mshr_hits::.cpu.inst          737                       # number of ReadReq MSHR hits
system.cpu.icache.ReadReq_mshr_hits::total          737                       # number of ReadReq MSHR hits
system.cpu.icache.ReadReq_mshr_misses::.cpu.inst         2639                       # number of ReadReq MSHR misses
system.cpu.icache.ReadReq_mshr_misses::total         2639                       # number of ReadReq MSHR misses
system.cpu.icache.ReadReq_mshr_miss_latency::.cpu.inst    158378500                       # number of ReadReq MSHR miss cycles
system.cpu.icache.ReadReq_mshr_miss_latency::total    158378500                       # number of ReadReq MSHR miss cycles
system.cpu.icache.ReadReq_mshr_miss_rate::.cpu.inst     0.002100                       # mshr miss rate for ReadReq accesses
system.cpu.icache.ReadReq_mshr_miss_rate::total     0.002100                       # mshr miss rate for ReadReq accesses
system.cpu.icache.ReadReq_avg_mshr_miss_latency::.cpu.inst 60014.588859                       # average ReadReq mshr miss latency
system.cpu.icache.ReadReq_avg_mshr_miss_latency::total 60014.588859                       # average ReadReq mshr miss latency
system.cpu.icache.power_state.pwrStateResidencyTicks::UNDEFINED   2958393500                       # Cumulative time (in ticks) in various power states
system.cpu.icache.tags.tagsinuse           506.155517                       # Cycle average of tags in use
system.cpu.icache.tags.total_refs             1255745                       # Total number of references to valid blocks.
system.cpu.icache.tags.sampled_refs              2639                       # Sample count of references to valid blocks.
system.cpu.icache.tags.avg_refs            475.841228                       # Average number of references to valid blocks.
system.cpu.icache.tags.warmup_cycle             79500                       # Cycle when the warmup percentage was hit.
system.cpu.icache.tags.occ_blocks::.cpu.inst   506.155517                       # Average occupied blocks per requestor
system.cpu.icache.tags.occ_percent::.cpu.inst     0.988585                       # Average percentage of cache occupancy
system.cpu.icache.tags.occ_percent::total     0.988585                       # Average percentage of cache occupancy
system.cpu.icache.tags.occ_task_id_blocks::1024          512                       # Occupied blocks per task id
system.cpu.icache.tags.age_task_id_blocks_1024::2            2                       # Occupied blocks per task id
system.cpu.icache.tags.age_task_id_blocks_1024::3          510                       # Occupied blocks per task id
system.cpu.icache.tags.occ_task_id_percent::1024            1                       # Percentage of cache occupancy per task id
system.cpu.icache.tags.tag_accesses           2515603                       # Number of tag accesses
system.cpu.icache.tags.data_accesses          2515603                       # Number of data accesses
system.cpu.icache.tags.power_state.pwrStateResidencyTicks::UNDEFINED   2958393500                       # Cumulative time (in ticks) in various power states
system.cpu.interrupts.clk_domain.clock           8000                       # Clock period in ticks
system.cpu.itb.rdAccesses                           0                       # TLB accesses on read requests
system.cpu.itb.wrAccesses                     1256987                       # TLB accesses on write requests
system.cpu.itb.rdMisses                             0                       # TLB misses on read requests
system.cpu.itb.wrMisses                           724                       # TLB misses on write requests
system.cpu.itb.walker.power_state.pwrStateResidencyTicks::UNDEFINED   2958393500                       # Cumulative time (in ticks) in various power states
system.cpu.itb_walker_cache.blocked_cycles::no_mshrs            0                       # number of cycles access was blocked
system.cpu.itb_walker_cache.blocked_cycles::no_targets            0                       # number of cycles access was blocked
system.cpu.itb_walker_cache.blocked::no_mshrs            0                       # number of cycles access was blocked
system.cpu.itb_walker_cache.blocked::no_targets            0                       # number of cycles access was blocked
system.cpu.itb_walker_cache.avg_blocked_cycles::no_mshrs          nan                       # average number of cycles each access was blocked
system.cpu.itb_walker_cache.avg_blocked_cycles::no_targets          nan                       # average number of cycles each access was blocked
system.cpu.itb_walker_cache.replacements            0                       # number of replacements
system.cpu.itb_walker_cache.power_state.pwrStateResidencyTicks::UNDEFINED   2958393500                       # Cumulative time (in ticks) in various power states
system.cpu.itb_walker_cache.tags.tagsinuse            0                       # Cycle average of tags in use
system.cpu.itb_walker_cache.tags.total_refs            0                       # Total number of references to valid blocks.
system.cpu.itb_walker_cache.tags.sampled_refs            0                       # Sample count of references to valid blocks.
system.cpu.itb_walker_cache.tags.avg_refs          nan                       # Average number of references to valid blocks.
system.cpu.itb_walker_cache.tags.warmup_cycle            0                       # Cycle when the warmup percentage was hit.
system.cpu.itb_walker_cache.tags.tag_accesses            0                       # Number of tag accesses
system.cpu.itb_walker_cache.tags.data_accesses            0                       # Number of data accesses
system.cpu.itb_walker_cache.tags.power_state.pwrStateResidencyTicks::UNDEFINED   2958393500                       # Cumulative time (in ticks) in various power states
system.cpu.lsq0.forwLoads                      148078                       # Number of loads that had data forwarded from stores
system.cpu.lsq0.squashedLoads                   79739                       # Number of loads squashed
system.cpu.lsq0.ignoredResponses                   63                       # Number of memory responses ignored because the instruction is squashed
system.cpu.lsq0.memOrderViolation                 161                       # Number of memory ordering violations
system.cpu.lsq0.squashedStores                  27041                       # Number of stores squashed
system.cpu.lsq0.rescheduledLoads                   29                       # Number of loads that were rescheduled
system.cpu.lsq0.blockedByCache                    357                       # Number of times an access to memory failed due to the cache being blocked
system.cpu.power_state.pwrStateResidencyTicks::ON   2958393500                       # Cumulative time (in ticks) in various power states
system.cpu.rename.squashCycles                  17034                       # Number of cycles rename is squashing
system.cpu.rename.idleCycles                  1100549                       # Number of cycles rename is idle
system.cpu.rename.blockCycles                  302981                       # Number of cycles rename is blocking
system.cpu.rename.serializeStallCycles           3014                       # count of cycles rename stalledfor serializing inst
system.cpu.rename.runCycles                   2011039                       # Number of cycles rename is running
system.cpu.rename.unblockCycles               2341369                       # Number of cycles rename is unblocking
system.cpu.rename.renamedInsts               18874004                       # Number of instructions processed by rename
system.cpu.rename.ROBFullEvents                  3196                       # Number of times rename has blocked due to ROB full
system.cpu.rename.IQFullEvents                1874793                       # Number of times rename has blocked due to IQ full
system.cpu.rename.LQFullEvents                   1155                       # Number of times rename has blocked due to LQ full
system.cpu.rename.SQFullEvents                 164011                       # Number of times rename has blocked due to SQ full
system.cpu.rename.fullRegistersEvents              30                       # Number of times there has been no free registers
system.cpu.rename.renamedOperands            21831867                       # Number of destination operands rename has renamed
system.cpu.rename.lookups                    44228442                       # Number of register rename lookups that rename has made
system.cpu.rename.intLookups                 20172162                       # Number of integer rename lookups
system.cpu.rename.fpLookups                  12339265                       # Number of floating rename lookups
system.cpu.rename.committedMaps              20388214                       # Number of HB maps that are committed
system.cpu.rename.undoneMaps                  1443505                       # Number of HB maps that are undone due to squashing
system.cpu.rename.serializing                      44                       # count of serializing insts renamed
system.cpu.rename.tempSerializing                  25                       # count of temporary serializing insts renamed
system.cpu.rename.skidInsts                   5322381                       # count of insts added to the skid buffer
system.cpu.rob.reads                         23487729                       # The number of ROB reads
system.cpu.rob.writes                        37609048                       # The number of ROB writes
system.cpu.thread_0.numInsts                 10000000                       # Number of Instructions committed
system.cpu.thread_0.numOps                   17911679                       # Number of Ops committed
system.cpu.thread_0.numMemRefs                      0                       # Number of Memory References
system.cpu_clk_domain.clock                       500                       # Clock period in ticks
system.cpu_voltage_domain.voltage                   1                       # Voltage in Volts
system.l2.demand_hits::.cpu.inst                  497                       # number of demand (read+write) hits
system.l2.demand_hits::.cpu.data                 1694                       # number of demand (read+write) hits
system.l2.demand_hits::total                     2191                       # number of demand (read+write) hits
system.l2.overall_hits::.cpu.inst                 497                       # number of overall hits
system.l2.overall_hits::.cpu.data                1694                       # number of overall hits
system.l2.overall_hits::total                    2191                       # number of overall hits
system.l2.demand_misses::.cpu.inst               2142                       # number of demand (read+write) misses
system.l2.demand_misses::.cpu.data              13050                       # number of demand (read+write) misses
system.l2.demand_misses::total                  15192                       # number of demand (read+write) misses
system.l2.overall_misses::.cpu.inst              2142                       # number of overall misses
system.l2.overall_misses::.cpu.data             13050                       # number of overall misses
system.l2.overall_misses::total                 15192                       # number of overall misses
system.l2.demand_miss_latency::.cpu.inst    149099000                       # number of demand (read+write) miss cycles
system.l2.demand_miss_latency::.cpu.data    907250500                       # number of demand (read+write) miss cycles
system.l2.demand_miss_latency::total       1056349500                       # number of demand (read+write) miss cycles
system.l2.overall_miss_latency::.cpu.inst    149099000                       # number of overall miss cycles
system.l2.overall_miss_latency::.cpu.data    907250500                       # number of overall miss cycles
system.l2.overall_miss_latency::total      1056349500                       # number of overall miss cycles
system.l2.demand_accesses::.cpu.inst             2639                       # number of demand (read+write) accesses
system.l2.demand_accesses::.cpu.data            14744                       # number of demand (read+write) accesses
system.l2.demand_accesses::total                17383                       # number of demand (read+write) accesses
system.l2.overall_accesses::.cpu.inst            2639                       # number of overall (read+write) accesses
system.l2.overall_accesses::.cpu.data           14744                       # number of overall (read+write) accesses
system.l2.overall_accesses::total               17383                       # number of overall (read+write) accesses
system.l2.demand_miss_rate::.cpu.inst        0.811671                       # miss rate for demand accesses
system.l2.demand_miss_rate::.cpu.data        0.885106                       # miss rate for demand accesses
system.l2.demand_miss_rate::total            0.873957                       # miss rate for demand accesses
system.l2.overall_miss_rate::.cpu.inst       0.811671                       # miss rate for overall accesses
system.l2.overall_miss_rate::.cpu.data       0.885106                       # miss rate for overall accesses
system.l2.overall_miss_rate::total           0.873957                       # miss rate for overall accesses
system.l2.demand_avg_miss_latency::.cpu.inst 69607.376284                       # average overall miss latency
system.l2.demand_avg_miss_latency::.cpu.data 69521.111111                       # average overall miss latency
system.l2.demand_avg_miss_latency::total 69533.274092                       # average overall miss latency
system.l2.overall_avg_miss_latency::.cpu.inst 69607.376284                       # average overall miss latency
system.l2.overall_avg_miss_latency::.cpu.data 69521.111111                       # average overall miss latency
[...]
system.mem_ctrls.dram.bw_total::.cpu.data    282315385                       # Total bandwidth to/from this memory (bytes/s)
system.mem_ctrls.dram.bw_total::total       380098185                       # Total bandwidth to/from this memory (bytes/s)
system.mem_ctrls.dram.readBursts                15186                       # Number of DRAM read bursts
system.mem_ctrls.dram.writeBursts                2360                       # Number of DRAM write bursts
system.mem_ctrls.dram.perBankRdBursts::0         1143                       # Per bank write bursts
system.mem_ctrls.dram.perBankRdBursts::1          960                       # Per bank write bursts
system.mem_ctrls.dram.perBankRdBursts::2          819                       # Per bank write bursts
system.mem_ctrls.dram.perBankRdBursts::3          868                       # Per bank write bursts
system.mem_ctrls.dram.perBankRdBursts::4          972                       # Per bank write bursts
system.mem_ctrls.dram.perBankRdBursts::5          961                       # Per bank write bursts
system.mem_ctrls.dram.perBankRdBursts::6         1008                       # Per bank write bursts
system.mem_ctrls.dram.perBankRdBursts::7          952                       # Per bank write bursts
system.mem_ctrls.dram.perBankRdBursts::8          958                       # Per bank write bursts
system.mem_ctrls.dram.perBankRdBursts::9          907                       # Per bank write bursts
system.mem_ctrls.dram.perBankRdBursts::10          790                       # Per bank write bursts
system.mem_ctrls.dram.perBankRdBursts::11         1016                       # Per bank write bursts
system.mem_ctrls.dram.perBankRdBursts::12          846                       # Per bank write bursts
system.mem_ctrls.dram.perBankRdBursts::13          882                       # Per bank write bursts
system.mem_ctrls.dram.perBankRdBursts::14         1057                       # Per bank write bursts
system.mem_ctrls.dram.perBankRdBursts::15         1047                       # Per bank write bursts
system.mem_ctrls.dram.perBankWrBursts::0          188                       # Per bank write bursts
system.mem_ctrls.dram.perBankWrBursts::1           63                       # Per bank write bursts
system.mem_ctrls.dram.perBankWrBursts::2           79                       # Per bank write bursts
system.mem_ctrls.dram.perBankWrBursts::3          111                       # Per bank write bursts
system.mem_ctrls.dram.perBankWrBursts::4          111                       # Per bank write bursts
system.mem_ctrls.dram.perBankWrBursts::5          229                       # Per bank write bursts
system.mem_ctrls.dram.perBankWrBursts::6          249                       # Per bank write bursts
system.mem_ctrls.dram.perBankWrBursts::7          181                       # Per bank write bursts
system.mem_ctrls.dram.perBankWrBursts::8          142                       # Per bank write bursts
system.mem_ctrls.dram.perBankWrBursts::9           66                       # Per bank write bursts
system.mem_ctrls.dram.perBankWrBursts::10          109                       # Per bank write bursts
system.mem_ctrls.dram.perBankWrBursts::11          152                       # Per bank write bursts
system.mem_ctrls.dram.perBankWrBursts::12           21                       # Per bank write bursts
system.mem_ctrls.dram.perBankWrBursts::13          138                       # Per bank write bursts
system.mem_ctrls.dram.perBankWrBursts::14          330                       # Per bank write bursts
system.mem_ctrls.dram.perBankWrBursts::15          191                       # Per bank write bursts
system.mem_ctrls.dram.totQLat               114991250                       # Total ticks spent queuing
system.mem_ctrls.dram.totBusLat              75930000                       # Total ticks spent in databus transfers
system.mem_ctrls.dram.totMemAccLat          399728750                       # Total ticks spent from burst creation until serviced by the DRAM
system.mem_ctrls.dram.avgQLat                 7572.19                       # Average queueing delay per DRAM burst
system.mem_ctrls.dram.avgBusLat               5000.00                       # Average bus latency per DRAM burst
system.mem_ctrls.dram.avgMemAccLat           26322.19                       # Average memory access latency per DRAM burst
system.mem_ctrls.dram.readRowHits               13201                       # Number of row buffer hits during reads
system.mem_ctrls.dram.writeRowHits               1969                       # Number of row buffer hits during writes
system.mem_ctrls.dram.readRowHitRate            86.93                       # Row buffer hit rate for reads
system.mem_ctrls.dram.writeRowHitRate           83.43                       # Row buffer hit rate for writes
system.mem_ctrls.dram.bytesPerActivate::samples         2373                       # Bytes accessed per row activation
system.mem_ctrls.dram.bytesPerActivate::mean   472.758534                       # Bytes accessed per row activation
system.mem_ctrls.dram.bytesPerActivate::gmean   306.184522                       # Bytes accessed per row activation
system.mem_ctrls.dram.bytesPerActivate::stdev   367.306321                       # Bytes accessed per row activation
system.mem_ctrls.dram.bytesPerActivate::0-127          475     20.02%     20.02% # Bytes accessed per row activation
system.mem_ctrls.dram.bytesPerActivate::128-255          445     18.75%     38.77% # Bytes accessed per row activation
system.mem_ctrls.dram.bytesPerActivate::256-383          267     11.25%     50.02% # Bytes accessed per row activation
system.mem_ctrls.dram.bytesPerActivate::384-511          180      7.59%     57.61% # Bytes accessed per row activation
system.mem_ctrls.dram.bytesPerActivate::512-639          134      5.65%     63.25% # Bytes accessed per row activation
system.mem_ctrls.dram.bytesPerActivate::640-767          111      4.68%     67.93% # Bytes accessed per row activation
system.mem_ctrls.dram.bytesPerActivate::768-895           97      4.09%     72.02% # Bytes accessed per row activation
system.mem_ctrls.dram.bytesPerActivate::896-1023          354     14.92%     86.94% # Bytes accessed per row activation
system.mem_ctrls.dram.bytesPerActivate::1024-1151          310     13.06%    100.00% # Bytes accessed per row activation
system.mem_ctrls.dram.bytesPerActivate::total         2373                       # Bytes accessed per row activation
system.mem_ctrls.dram.bytesRead                971904                       # Total number of bytes read from DRAM
system.mem_ctrls.dram.bytesWritten             151040                       # Total number of bytes written to DRAM
system.mem_ctrls.dram.avgRdBW              328.524248                       # Average DRAM read bandwidth in MiBytes/s
system.mem_ctrls.dram.avgWrBW               51.054736                       # Average DRAM write bandwidth in MiBytes/s
system.mem_ctrls.dram.peakBW                 12800.00                       # Theoretical peak bandwidth in MiByte/s
system.mem_ctrls.dram.busUtil                    2.97                       # Data bus utilization in percentage
system.mem_ctrls.dram.busUtilRead                2.57                       # Data bus utilization in percentage for reads
system.mem_ctrls.dram.busUtilWrite               0.40                       # Data bus utilization in percentage for writes
system.mem_ctrls.dram.pageHitRate               86.46                       # Row buffer hit rate, read and write combined
system.mem_ctrls.dram.power_state.pwrStateResidencyTicks::UNDEFINED   2958393500                       # Cumulative time (in ticks) in various power states
system.mem_ctrls.dram.rank0.actEnergy         8703660                       # Energy for activate commands per rank (pJ)
system.mem_ctrls.dram.rank0.preEnergy         4618515                       # Energy for precharge commands per rank (pJ)
system.mem_ctrls.dram.rank0.readEnergy       54856620                       # Energy for read commands per rank (pJ)
system.mem_ctrls.dram.rank0.writeEnergy       6321420                       # Energy for write commands per rank (pJ)
system.mem_ctrls.dram.rank0.refreshEnergy 232948560.000000                       # Energy for refresh commands per rank (pJ)
system.mem_ctrls.dram.rank0.actBackEnergy    898908240                       # Energy for active background per rank (pJ)
system.mem_ctrls.dram.rank0.preBackEnergy    379047840                       # Energy for precharge background per rank (pJ)
system.mem_ctrls.dram.rank0.actPowerDownEnergy            0                       # Energy for active power-down per rank (pJ)
system.mem_ctrls.dram.rank0.prePowerDownEnergy            0                       # Energy for precharge power-down per rank (pJ)
system.mem_ctrls.dram.rank0.selfRefreshEnergy            0                       # Energy for self refresh per rank (pJ)
system.mem_ctrls.dram.rank0.totalEnergy    1585404855                       # Total energy per rank (pJ)
system.mem_ctrls.dram.rank0.averagePower   535.900601                       # Core power per rank (mW)
system.mem_ctrls.dram.rank0.totalIdleTime            0                       # Total Idle time Per DRAM Rank
system.mem_ctrls.dram.rank0.pwrStateTime::IDLE    976667250                       # Time in different power states
system.mem_ctrls.dram.rank0.pwrStateTime::REF     98540000                       # Time in different power states
system.mem_ctrls.dram.rank0.pwrStateTime::SREF            0                       # Time in different power states
system.mem_ctrls.dram.rank0.pwrStateTime::PRE_PDN            0                       # Time in different power states
system.mem_ctrls.dram.rank0.pwrStateTime::ACT   1883186250                       # Time in different power states
system.mem_ctrls.dram.rank0.pwrStateTime::ACT_PDN            0                       # Time in different power states
system.mem_ctrls.dram.rank1.actEnergy         8260980                       # Energy for activate commands per rank (pJ)
system.mem_ctrls.dram.rank1.preEnergy         4387020                       # Energy for precharge commands per rank (pJ)
system.mem_ctrls.dram.rank1.readEnergy       53571420                       # Energy for read commands per rank (pJ)
system.mem_ctrls.dram.rank1.writeEnergy       5997780                       # Energy for write commands per rank (pJ)
system.mem_ctrls.dram.rank1.refreshEnergy 232948560.000000                       # Energy for refresh commands per rank (pJ)
system.mem_ctrls.dram.rank1.actBackEnergy    955631790                       # Energy for active background per rank (pJ)
system.mem_ctrls.dram.rank1.preBackEnergy    331280640                       # Energy for precharge background per rank (pJ)
system.mem_ctrls.dram.rank1.actPowerDownEnergy            0                       # Energy for active power-down per rank (pJ)
system.mem_ctrls.dram.rank1.prePowerDownEnergy            0                       # Energy for precharge power-down per rank (pJ)
system.mem_ctrls.dram.rank1.selfRefreshEnergy            0                       # Energy for self refresh per rank (pJ)
system.mem_ctrls.dram.rank1.totalEnergy    1592078190                       # Total energy per rank (pJ)
system.mem_ctrls.dram.rank1.averagePower   538.156330                       # Core power per rank (mW)
system.mem_ctrls.dram.rank1.totalIdleTime            0                       # Total Idle time Per DRAM Rank
system.mem_ctrls.dram.rank1.pwrStateTime::IDLE    852376000                       # Time in different power states
system.mem_ctrls.dram.rank1.pwrStateTime::REF     98540000                       # Time in different power states
system.mem_ctrls.dram.rank1.pwrStateTime::SREF            0                       # Time in different power states
system.mem_ctrls.dram.rank1.pwrStateTime::PRE_PDN            0                       # Time in different power states
system.mem_ctrls.dram.rank1.pwrStateTime::ACT   2007477500                       # Time in different power states
system.mem_ctrls.dram.rank1.pwrStateTime::ACT_PDN            0                       # Time in different power states
system.mem_ctrls.power_state.pwrStateResidencyTicks::UNDEFINED   2958393500                       # Cumulative time (in ticks) in various power states
system.membus.trans_dist::ReadResp               4737                       # Transaction distribution
system.membus.trans_dist::WritebackDirty         2378                       # Transaction distribution
system.membus.trans_dist::CleanEvict             4112                       # Transaction distribution
system.membus.trans_dist::ReadExReq             10455                       # Transaction distribution
system.membus.trans_dist::ReadExResp            10455                       # Transaction distribution
system.membus.trans_dist::ReadSharedReq          4737                       # Transaction distribution
system.membus.pkt_count_system.l2.mem_side_port::system.mem_ctrls.port        36874                       # Packet count per connected requestor and responder (bytes)
system.membus.pkt_count_system.l2.mem_side_port::total        36874                       # Packet count per connected requestor and responder (bytes)
system.membus.pkt_count::total                  36874                       # Packet count per connected requestor and responder (bytes)
system.membus.pkt_size_system.l2.mem_side_port::system.mem_ctrls.port      1124480                       # Cumulative packet size per connected requestor and responder (bytes)
system.membus.pkt_size_system.l2.mem_side_port::total      1124480                       # Cumulative packet size per connected requestor and responder (bytes)
system.membus.pkt_size::total                 1124480                       # Cumulative packet size per connected requestor and responder (bytes)
system.membus.snoops                                0                       # Total snoops (count)
system.membus.snoopTraffic                          0                       # Total snoop traffic (bytes)
system.membus.snoop_fanout::samples             15192                       # Request fanout histogram
system.membus.snoop_fanout::mean                    0                       # Request fanout histogram
system.membus.snoop_fanout::stdev                   0                       # Request fanout histogram
system.membus.snoop_fanout::underflows              0      0.00%      0.00% # Request fanout histogram
system.membus.snoop_fanout::0                   15192    100.00%    100.00% # Request fanout histogram
system.membus.snoop_fanout::1                       0      0.00%    100.00% # Request fanout histogram
system.membus.snoop_fanout::overflows               0      0.00%    100.00% # Request fanout histogram
system.membus.snoop_fanout::min_value               0                       # Request fanout histogram
system.membus.snoop_fanout::max_value               0                       # Request fanout histogram
system.membus.snoop_fanout::total               15192                       # Request fanout histogram
system.membus.power_state.pwrStateResidencyTicks::UNDEFINED   2958393500                       # Cumulative time (in ticks) in various power states
system.membus.reqLayer2.occupancy             7798500                       # Layer occupancy (ticks)
system.membus.reqLayer2.utilization               0.3                       # Layer utilization (%)
system.membus.respLayer1.occupancy           18990000                       # Layer occupancy (ticks)
system.membus.respLayer1.utilization              0.6                       # Layer utilization (%)
system.tol2bus.trans_dist::ReadResp              6679                       # Transaction distribution
system.tol2bus.trans_dist::WritebackDirty        13404                       # Transaction distribution
system.tol2bus.trans_dist::WritebackClean         2127                       # Transaction distribution
system.tol2bus.trans_dist::CleanEvict            7831                       # Transaction distribution
system.tol2bus.trans_dist::ReadExReq            10704                       # Transaction distribution
system.tol2bus.trans_dist::ReadExResp           10704                       # Transaction distribution
system.tol2bus.trans_dist::ReadCleanReq          2639                       # Transaction distribution
system.tol2bus.trans_dist::ReadSharedReq         4040                       # Transaction distribution
system.tol2bus.pkt_count_system.cpu.icache.mem_side_port::system.l2.cpu_side_port         7405                       # Packet count per connected requestor and responder (bytes)
system.tol2bus.pkt_count_system.cpu.dcache.mem_side_port::system.l2.cpu_side_port        43720                       # Packet count per connected requestor and responder (bytes)
system.tol2bus.pkt_count::total                 51125                       # Packet count per connected requestor and responder (bytes)
system.tol2bus.pkt_size_system.cpu.icache.mem_side_port::system.l2.cpu_side_port       305024                       # Cumulative packet size per connected requestor and responder (bytes)
system.tol2bus.pkt_size_system.cpu.dcache.mem_side_port::system.l2.cpu_side_port      1649280                       # Cumulative packet size per connected requestor and responder (bytes)
system.tol2bus.pkt_size::total                1954304                       # Cumulative packet size per connected requestor and responder (bytes)
system.tol2bus.snoops                            7003                       # Total snoops (count)
system.tol2bus.snoopTraffic                    152192                       # Total snoop traffic (bytes)
system.tol2bus.snoop_fanout::samples            24386                       # Request fanout histogram
system.tol2bus.snoop_fanout::mean            0.021324                       # Request fanout histogram
system.tol2bus.snoop_fanout::stdev           0.144464                       # Request fanout histogram
system.tol2bus.snoop_fanout::underflows             0      0.00%      0.00% # Request fanout histogram
system.tol2bus.snoop_fanout::0                  23866     97.87%     97.87% # Request fanout histogram
system.tol2bus.snoop_fanout::1                    520      2.13%    100.00% # Request fanout histogram
system.tol2bus.snoop_fanout::2                      0      0.00%    100.00% # Request fanout histogram
system.tol2bus.snoop_fanout::3                      0      0.00%    100.00% # Request fanout histogram
system.tol2bus.snoop_fanout::4                      0      0.00%    100.00% # Request fanout histogram
system.tol2bus.snoop_fanout::overflows              0      0.00%    100.00% # Request fanout histogram
system.tol2bus.snoop_fanout::min_value              0                       # Request fanout histogram
system.tol2bus.snoop_fanout::max_value              1                       # Request fanout histogram
system.tol2bus.snoop_fanout::total              24386                       # Request fanout histogram
system.tol2bus.power_state.pwrStateResidencyTicks::UNDEFINED   2958393500                       # Cumulative time (in ticks) in various power states
system.tol2bus.reqLayer0.occupancy           30024000                       # Layer occupancy (ticks)
system.tol2bus.reqLayer0.utilization              1.0                       # Layer utilization (%)
system.tol2bus.respLayer0.occupancy           3960496                       # Layer occupancy (ticks)
system.tol2bus.respLayer0.utilization             0.1                       # Layer utilization (%)
system.tol2bus.respLayer1.occupancy          22116000                       # Layer occupancy (ticks)
system.tol2bus.respLayer1.utilization             0.7                       # Layer utilization (%)
system.voltage_domain.voltage                       1                       # Voltage in Volts

---------- End Simulation Statistics   ----------
