
---------- Begin Simulation Statistics ----------
final_tick                                51305836000                       # Number of ticks from beginning of simulation (restored from checkpoints and never reset)
host_inst_rate                                  74965                       # Simulator instruction rate (inst/s)
host_mem_usage                                 717216                       # Number of bytes of host memory used
host_op_rate                                   124456                       # Simulator op (including micro ops) rate (op/s)
host_seconds                                  1333.96                       # Real time elapsed on the host
host_tick_rate                               38461243                       # Simulator tick rate (ticks/s)
sim_freq                                 1000000000000                       # Frequency of simulated ticks
sim_insts                                   100000001                       # Number of instructions simulated
sim_ops                                     166019455                       # Number of ops (including micro ops) simulated
sim_seconds                                  0.051306                       # Number of seconds simulated
sim_ticks                                 51305836000                       # Number of ticks simulated
system.cpu.cc_regfile_reads                  33472034                       # number of cc regfile reads
system.cpu.cc_regfile_writes                 73531543                       # number of cc regfile writes
system.cpu.committedInsts                   100000001                       # Number of Instructions Simulated
system.cpu.committedOps                     166019455                       # Number of Ops (including micro ops) Simulated
system.cpu.cpi                               1.026117                       # CPI: Cycles Per Instruction
system.cpu.cpi_total                         1.026117                       # CPI: Total CPI of All Threads
system.cpu.fp_regfile_reads                  47852734                       # number of floating regfile reads
system.cpu.fp_regfile_writes                 29626772                       # number of floating regfile writes
system.cpu.idleCycles                          192297                       # Total number of cycles that the CPU has spent unscheduled due to idling
system.cpu.iew.branchMispredicts                65388                       # Number of branch mispredicts detected at execute
system.cpu.iew.exec_branches                  5831425                       # Number of branches executed
system.cpu.iew.exec_nop                             0                       # number of nop insts executed
system.cpu.iew.exec_rate                     1.899485                       # Inst execution rate
system.cpu.iew.exec_refs                     55138789                       # number of memory reference insts executed
system.cpu.iew.exec_stores                   16926872                       # Number of stores executed
system.cpu.iew.exec_swp                             0                       # number of swp insts executed
system.cpu.iew.iewBlockCycles                18579368                       # Number of cycles IEW is blocking
system.cpu.iew.iewDispLoadInsts              38385012                       # Number of dispatched load instructions
system.cpu.iew.iewDispNonSpecInsts                255                       # Number of dispatched non-speculative instructions
system.cpu.iew.iewDispSquashedInsts              2223                       # Number of squashed instructions skipped by dispatch
system.cpu.iew.iewDispStoreInsts             17704037                       # Number of dispatched store instructions
system.cpu.iew.iewDispatchedInsts           196802348                       # Number of instructions dispatched to IQ
system.cpu.iew.iewExecLoadInsts              38211917                       # Number of load instructions executed
system.cpu.iew.iewExecSquashedInsts            172531                       # Number of squashed instructions skipped in execute
system.cpu.iew.iewExecutedInsts             194909377                       # Number of executed instructions
system.cpu.iew.iewIQFullEvents                  53154                       # Number of times the IQ has become full, causing a stall
system.cpu.iew.iewIdleCycles                        0                       # Number of cycles IEW is idle
system.cpu.iew.iewLSQFullEvents               3416558                       # Number of times the LSQ has become full, causing a stall
system.cpu.iew.iewSquashCycles                 335327                       # Number of cycles IEW is squashing
system.cpu.iew.iewUnblockCycles               3445308                       # Number of cycles IEW is unblocking
system.cpu.iew.memOrderViolationEvents            478                       # Number of memory order violations
system.cpu.iew.predictedNotTakenIncorrect        12993                       # Number of branches that were predicted not taken incorrectly
system.cpu.iew.predictedTakenIncorrect          52395                       # Number of branches that were predicted taken incorrectly
system.cpu.iew.wb_consumers                 257460996                       # num instructions consuming a value
system.cpu.iew.wb_count                     191256938                       # cumulative count of insts written-back
system.cpu.iew.wb_fanout                     0.570694                       # average fanout of values written-back
system.cpu.iew.wb_producers                 146931431                       # num instructions producing a value
system.cpu.iew.wb_rate                       1.863891                       # insts written-back per cycle
system.cpu.iew.wb_sent                      194638969                       # cumulative count of insts sent to commit
system.cpu.int_regfile_reads                321586909                       # number of integer regfile reads
system.cpu.int_regfile_writes               144585189                       # number of integer regfile writes
system.cpu.ipc                               0.974548                       # IPC: Instructions Per Cycle
system.cpu.ipc_total                         0.974548                       # IPC: Total IPC of All Threads
system.cpu.iq.FU_type_0::No_OpClass           4238636      2.17%      2.17% # Type of FU issued
system.cpu.iq.FU_type_0::IntAlu             111492217     57.15%     59.32% # Type of FU issued
system.cpu.iq.FU_type_0::IntMult              6324809      3.24%     62.57% # Type of FU issued
system.cpu.iq.FU_type_0::IntDiv                101447      0.05%     62.62% # Type of FU issued
system.cpu.iq.FU_type_0::FloatAdd             1449256      0.74%     63.36% # Type of FU issued
system.cpu.iq.FU_type_0::FloatCmp                   0      0.00%     63.36% # Type of FU issued
system.cpu.iq.FU_type_0::FloatCvt                  32      0.00%     63.36% # Type of FU issued
system.cpu.iq.FU_type_0::FloatMult                  0      0.00%     63.36% # Type of FU issued
system.cpu.iq.FU_type_0::FloatMultAcc               0      0.00%     63.36% # Type of FU issued
system.cpu.iq.FU_type_0::FloatDiv                   0      0.00%     63.36% # Type of FU issued
system.cpu.iq.FU_type_0::FloatMisc                  0      0.00%     63.36% # Type of FU issued
system.cpu.iq.FU_type_0::FloatSqrt                  0      0.00%     63.36% # Type of FU issued
system.cpu.iq.FU_type_0::SimdAdd                 3200      0.00%     63.36% # Type of FU issued
system.cpu.iq.FU_type_0::SimdAddAcc                 0      0.00%     63.36% # Type of FU issued
system.cpu.iq.FU_type_0::SimdAlu              2862853      1.47%     64.83% # Type of FU issued
system.cpu.iq.FU_type_0::SimdCmp                   66      0.00%     64.83% # Type of FU issued
system.cpu.iq.FU_type_0::SimdCvt                 7936      0.00%     64.83% # Type of FU issued
system.cpu.iq.FU_type_0::SimdMisc             2869751      1.47%     66.31% # Type of FU issued
system.cpu.iq.FU_type_0::SimdMult                 248      0.00%     66.31% # Type of FU issued
system.cpu.iq.FU_type_0::SimdMultAcc                0      0.00%     66.31% # Type of FU issued
system.cpu.iq.FU_type_0::SimdShift               2658      0.00%     66.31% # Type of FU issued
system.cpu.iq.FU_type_0::SimdShiftAcc               0      0.00%     66.31% # Type of FU issued
system.cpu.iq.FU_type_0::SimdDiv                    0      0.00%     66.31% # Type of FU issued
system.cpu.iq.FU_type_0::SimdSqrt                   0      0.00%     66.31% # Type of FU issued
system.cpu.iq.FU_type_0::SimdFloatAdd         4781095      2.45%     68.76% # Type of FU issued
system.cpu.iq.FU_type_0::SimdFloatAlu               0      0.00%     68.76% # Type of FU issued
system.cpu.iq.FU_type_0::SimdFloatCmp               0      0.00%     68.76% # Type of FU issued
system.cpu.iq.FU_type_0::SimdFloatCvt         2386437      1.22%     69.98% # Type of FU issued
system.cpu.iq.FU_type_0::SimdFloatDiv              16      0.00%     69.98% # Type of FU issued
system.cpu.iq.FU_type_0::SimdFloatMisc              0      0.00%     69.98% # Type of FU issued
system.cpu.iq.FU_type_0::SimdFloatMult        3347067      1.72%     71.70% # Type of FU issued
system.cpu.iq.FU_type_0::SimdFloatMultAcc            0      0.00%     71.70% # Type of FU issued
system.cpu.iq.FU_type_0::SimdFloatSqrt              0      0.00%     71.70% # Type of FU issued
system.cpu.iq.FU_type_0::SimdReduceAdd              0      0.00%     71.70% # Type of FU issued
system.cpu.iq.FU_type_0::SimdReduceAlu              0      0.00%     71.70% # Type of FU issued
system.cpu.iq.FU_type_0::SimdReduceCmp              0      0.00%     71.70% # Type of FU issued
system.cpu.iq.FU_type_0::SimdFloatReduceAdd            0      0.00%     71.70% # Type of FU issued
system.cpu.iq.FU_type_0::SimdFloatReduceCmp            0      0.00%     71.70% # Type of FU issued
system.cpu.iq.FU_type_0::SimdAes                    0      0.00%     71.70% # Type of FU issued
system.cpu.iq.FU_type_0::SimdAesMix                 0      0.00%     71.70% # Type of FU issued
system.cpu.iq.FU_type_0::SimdSha1Hash               0      0.00%     71.70% # Type of FU issued
system.cpu.iq.FU_type_0::SimdSha1Hash2              0      0.00%     71.70% # Type of FU issued
system.cpu.iq.FU_type_0::SimdSha256Hash             0      0.00%     71.70% # Type of FU issued
system.cpu.iq.FU_type_0::SimdSha256Hash2            0      0.00%     71.70% # Type of FU issued
system.cpu.iq.FU_type_0::SimdShaSigma2              0      0.00%     71.70% # Type of FU issued
system.cpu.iq.FU_type_0::SimdShaSigma3              0      0.00%     71.70% # Type of FU issued
system.cpu.iq.FU_type_0::SimdPredAlu                0      0.00%     71.70% # Type of FU issued
system.cpu.iq.FU_type_0::MemRead             26556748     13.61%     85.31% # Type of FU issued
system.cpu.iq.FU_type_0::MemWrite            10707818      5.49%     90.80% # Type of FU issued
system.cpu.iq.FU_type_0::FloatMemRead        11698526      6.00%     96.80% # Type of FU issued
system.cpu.iq.FU_type_0::FloatMemWrite        6251095      3.20%    100.00% # Type of FU issued
system.cpu.iq.FU_type_0::IprAccess                  0      0.00%    100.00% # Type of FU issued
system.cpu.iq.FU_type_0::InstPrefetch               0      0.00%    100.00% # Type of FU issued
system.cpu.iq.FU_type_0::total              195081911                       # Type of FU issued
system.cpu.iq.fp_alu_accesses                39481556                       # Number of floating point alu accesses
system.cpu.iq.fp_inst_queue_reads            77052985                       # Number of floating instruction queue reads
system.cpu.iq.fp_inst_queue_wakeup_accesses     37131894                       # Number of floating instruction queue wakeup accesses
system.cpu.iq.fp_inst_queue_writes           50173492                       # Number of floating instruction queue writes
system.cpu.iq.fu_busy_cnt                     3747468                       # FU busy when requested
system.cpu.iq.fu_busy_rate                   0.019210                       # FU busy rate (busy events/executed inst)
system.cpu.iq.fu_full::No_OpClass                   0      0.00%      0.00% # attempts to use FU when none available
system.cpu.iq.fu_full::IntAlu                  588557     15.71%     15.71% # attempts to use FU when none available
system.cpu.iq.fu_full::IntMult                      0      0.00%     15.71% # attempts to use FU when none available
system.cpu.iq.fu_full::IntDiv                       0      0.00%     15.71% # attempts to use FU when none available
system.cpu.iq.fu_full::FloatAdd                     0      0.00%     15.71% # attempts to use FU when none available
system.cpu.iq.fu_full::FloatCmp                     0      0.00%     15.71% # attempts to use FU when none available
system.cpu.iq.fu_full::FloatCvt                     0      0.00%     15.71% # attempts to use FU when none available
system.cpu.iq.fu_full::FloatMult                    0      0.00%     15.71% # attempts to use FU when none available
system.cpu.iq.fu_full::FloatMultAcc                 0      0.00%     15.71% # attempts to use FU when none available
system.cpu.iq.fu_full::FloatDiv                     0      0.00%     15.71% # attempts to use FU when none available
system.cpu.iq.fu_full::FloatMisc                    0      0.00%     15.71% # attempts to use FU when none available
system.cpu.iq.fu_full::FloatSqrt                    0      0.00%     15.71% # attempts to use FU when none available
system.cpu.iq.fu_full::SimdAdd                      3      0.00%     15.71% # attempts to use FU when none available
system.cpu.iq.fu_full::SimdAddAcc                   0      0.00%     15.71% # attempts to use FU when none available
system.cpu.iq.fu_full::SimdAlu                    103      0.00%     15.71% # attempts to use FU when none available
system.cpu.iq.fu_full::SimdCmp                      0      0.00%     15.71% # attempts to use FU when none available
system.cpu.iq.fu_full::SimdCvt                     50      0.00%     15.71% # attempts to use FU when none available
system.cpu.iq.fu_full::SimdMisc                    24      0.00%     15.71% # attempts to use FU when none available
system.cpu.iq.fu_full::SimdMult                     0      0.00%     15.71% # attempts to use FU when none available
system.cpu.iq.fu_full::SimdMultAcc                  0      0.00%     15.71% # attempts to use FU when none available
system.cpu.iq.fu_full::SimdShift                   43      0.00%     15.71% # attempts to use FU when none available
system.cpu.iq.fu_full::SimdShiftAcc                 0      0.00%     15.71% # attempts to use FU when none available
system.cpu.iq.fu_full::SimdDiv                      0      0.00%     15.71% # attempts to use FU when none available
system.cpu.iq.fu_full::SimdSqrt                     0      0.00%     15.71% # attempts to use FU when none available
system.cpu.iq.fu_full::SimdFloatAdd                22      0.00%     15.71% # attempts to use FU when none available
system.cpu.iq.fu_full::SimdFloatAlu                 0      0.00%     15.71% # attempts to use FU when none available
system.cpu.iq.fu_full::SimdFloatCmp                 0      0.00%     15.71% # attempts to use FU when none available
system.cpu.iq.fu_full::SimdFloatCvt                 0      0.00%     15.71% # attempts to use FU when none available
system.cpu.iq.fu_full::SimdFloatDiv                 0      0.00%     15.71% # attempts to use FU when none available
system.cpu.iq.fu_full::SimdFloatMisc                0      0.00%     15.71% # attempts to use FU when none available
system.cpu.iq.fu_full::SimdFloatMult                3      0.00%     15.71% # attempts to use FU when none available
system.cpu.iq.fu_full::SimdFloatMultAcc             0      0.00%     15.71% # attempts to use FU when none available
system.cpu.iq.fu_full::SimdFloatSqrt                0      0.00%     15.71% # attempts to use FU when none available
system.cpu.iq.fu_full::SimdReduceAdd                0      0.00%     15.71% # attempts to use FU when none available
system.cpu.iq.fu_full::SimdReduceAlu                0      0.00%     15.71% # attempts to use FU when none available
system.cpu.iq.fu_full::SimdReduceCmp                0      0.00%     15.71% # attempts to use FU when none available
system.cpu.iq.fu_full::SimdFloatReduceAdd            0      0.00%     15.71% # attempts to use FU when none available
system.cpu.iq.fu_full::SimdFloatReduceCmp            0      0.00%     15.71% # attempts to use FU when none available
system.cpu.iq.fu_full::SimdAes                      0      0.00%     15.71% # attempts to use FU when none available
system.cpu.iq.fu_full::SimdAesMix                   0      0.00%     15.71% # attempts to use FU when none available
system.cpu.iq.fu_full::SimdSha1Hash                 0      0.00%     15.71% # attempts to use FU when none available
system.cpu.iq.fu_full::SimdSha1Hash2                0      0.00%     15.71% # attempts to use FU when none available
system.cpu.iq.fu_full::SimdSha256Hash               0      0.00%     15.71% # attempts to use FU when none available
system.cpu.iq.fu_full::SimdSha256Hash2              0      0.00%     15.71% # attempts to use FU when none available
system.cpu.iq.fu_full::SimdShaSigma2                0      0.00%     15.71% # attempts to use FU when none available
system.cpu.iq.fu_full::SimdShaSigma3                0      0.00%     15.71% # attempts to use FU when none available
system.cpu.iq.fu_full::SimdPredAlu                  0      0.00%     15.71% # attempts to use FU when none available
system.cpu.iq.fu_full::MemRead                 417755     11.15%     26.86% # attempts to use FU when none available
system.cpu.iq.fu_full::MemWrite                824504     22.00%     48.86% # attempts to use FU when none available
system.cpu.iq.fu_full::FloatMemRead           1673050     44.64%     93.51% # attempts to use FU when none available
system.cpu.iq.fu_full::FloatMemWrite           243354      6.49%    100.00% # attempts to use FU when none available
system.cpu.iq.fu_full::IprAccess                    0      0.00%    100.00% # attempts to use FU when none available
system.cpu.iq.fu_full::InstPrefetch                 0      0.00%    100.00% # attempts to use FU when none available
system.cpu.iq.int_alu_accesses              155109187                       # Number of integer alu accesses
system.cpu.iq.int_inst_queue_reads          419297595                       # Number of integer instruction queue reads
system.cpu.iq.int_inst_queue_wakeup_accesses    154125044                       # Number of integer instruction queue wakeup accesses
system.cpu.iq.int_inst_queue_writes         177412131                       # Number of integer instruction queue writes
system.cpu.iq.iqInstsAdded                  196746601                       # Number of instructions added to the IQ (excludes non-spec)
system.cpu.iq.iqInstsIssued                 195081911                       # Number of instructions issued
system.cpu.iq.iqNonSpecInstsAdded               55747                       # Number of non-speculative instructions added to the IQ
system.cpu.iq.iqSquashedInstsExamined        30782815                       # Number of squashed instructions iterated over during squash; mainly for profiling
system.cpu.iq.iqSquashedInstsIssued             19917                       # Number of squashed instructions issued
system.cpu.iq.iqSquashedNonSpecRemoved          50358                       # Number of squashed non-spec instructions that were removed
system.cpu.iq.iqSquashedOperandsExamined      7611078                       # Number of squashed operands that are examined and possibly removed from graph
system.cpu.iq.issued_per_cycle::samples     102419376                       # Number of insts issued each cycle
system.cpu.iq.issued_per_cycle::mean         1.904736                       # Number of insts issued each cycle
system.cpu.iq.issued_per_cycle::stdev        2.152143                       # Number of insts issued each cycle
system.cpu.iq.issued_per_cycle::underflows            0      0.00%      0.00% # Number of insts issued each cycle
system.cpu.iq.issued_per_cycle::0            43936051     42.90%     42.90% # Number of insts issued each cycle
system.cpu.iq.issued_per_cycle::1             9678659      9.45%     52.35% # Number of insts issued each cycle
system.cpu.iq.issued_per_cycle::2            13134012     12.82%     65.17% # Number of insts issued each cycle
system.cpu.iq.issued_per_cycle::3            11393142     11.12%     76.30% # Number of insts issued each cycle
system.cpu.iq.issued_per_cycle::4            10172493      9.93%     86.23% # Number of insts issued each cycle
system.cpu.iq.issued_per_cycle::5             6142369      6.00%     92.23% # Number of insts issued each cycle
system.cpu.iq.issued_per_cycle::6             3741870      3.65%     95.88% # Number of insts issued each cycle
system.cpu.iq.issued_per_cycle::7             2663475      2.60%     98.48% # Number of insts issued each cycle
system.cpu.iq.issued_per_cycle::8             1557305      1.52%    100.00% # Number of insts issued each cycle
system.cpu.iq.issued_per_cycle::overflows            0      0.00%    100.00% # Number of insts issued each cycle
system.cpu.iq.issued_per_cycle::min_value            0                       # Number of insts issued each cycle
system.cpu.iq.issued_per_cycle::max_value            8                       # Number of insts issued each cycle
system.cpu.iq.issued_per_cycle::total       102419376                       # Number of insts issued each cycle
system.cpu.iq.rate                           1.901167                       # Inst issue rate
system.cpu.iq.vec_alu_accesses                      0                       # Number of vector alu accesses
system.cpu.iq.vec_inst_queue_reads                  0                       # Number of vector instruction queue reads
system.cpu.iq.vec_inst_queue_wakeup_accesses            0                       # Number of vector instruction queue wakeup accesses
system.cpu.iq.vec_inst_queue_writes                 0                       # Number of vector instruction queue writes
system.cpu.memDep0.conflictingLoads           1873950                       # Number of conflicting loads.
system.cpu.memDep0.conflictingStores          1489144                       # Number of conflicting stores.
system.cpu.memDep0.insertedLoads             38385012                       # Number of loads inserted to the mem dependence unit.
system.cpu.memDep0.insertedStores            17704037                       # Number of stores inserted to the mem dependence unit.
system.cpu.misc_regfile_reads                70557443                       # number of misc regfile reads
system.cpu.misc_regfile_writes                     18                       # number of misc regfile writes
system.cpu.numCycles                        102611673                       # number of cpu cycles simulated
system.cpu.numWorkItemsCompleted                    0                       # number of work items this cpu completed
system.cpu.numWorkItemsStarted                      0                       # number of work items this cpu started
system.cpu.timesIdled                            2182                       # Number of times that the entire CPU went into an idle state and unscheduled itself
system.cpu.workload.numSyscalls                   121                       # Number of system calls
system.membus.snoop_filter.hit_multi_requests            0                       # Number of requests hitting in the snoop filter with multiple (>1) holders of the requested data.
system.membus.snoop_filter.hit_multi_snoops            0                       # Number of snoops hitting in the snoop filter with multiple (>1) holders of the requested data.
system.membus.snoop_filter.hit_single_requests       379059                       # Number of requests hitting in the snoop filter with a single holder of the requested data.
system.membus.snoop_filter.hit_single_snoops            0                       # Number of snoops hitting in the snoop filter with a single holder of the requested data.
system.membus.snoop_filter.tot_requests        766826                       # Total number of requests made to the snoop filter.
system.membus.snoop_filter.tot_snoops               0                       # Total number of snoops made to the snoop filter.
system.tol2bus.snoop_filter.hit_multi_requests           15                       # Number of requests hitting in the snoop filter with multiple (>1) holders of the requested data.
system.tol2bus.snoop_filter.hit_multi_snoops            0                       # Number of snoops hitting in the snoop filter with multiple (>1) holders of the requested data.
system.tol2bus.snoop_filter.hit_single_requests       426188                       # Number of requests hitting in the snoop filter with a single holder of the requested data.
system.tol2bus.snoop_filter.hit_single_snoops         1229                       # Number of snoops hitting in the snoop filter with a single holder of the requested data.
system.tol2bus.snoop_filter.tot_requests       853403                       # Total number of requests made to the snoop filter.
system.tol2bus.snoop_filter.tot_snoops           1229                       # Total number of snoops made to the snoop filter.
system.clk_domain.clock                           250                       # Clock period in ticks
system.cpu.branchPred.lookups                 6409075                       # Number of BP lookups
system.cpu.branchPred.condPredicted           4624471                       # Number of conditional branches predicted
system.cpu.branchPred.condIncorrect             56333                       # Number of conditional branches incorrect
system.cpu.branchPred.BTBLookups              3442373                       # Number of BTB lookups
system.cpu.branchPred.BTBHits                 3437526                       # Number of BTB hits
system.cpu.branchPred.BTBHitPct             99.859196                       # BTB Hit Percentage
system.cpu.branchPred.RASUsed                  597458                       # Number of times the RAS was used to get a target.
system.cpu.branchPred.RASIncorrect                 22                       # Number of incorrect RAS predictions.
system.cpu.branchPred.indirectLookups          583088                       # Number of indirect predictor lookups.
system.cpu.branchPred.indirectHits             574334                       # Number of indirect target hits.
system.cpu.branchPred.indirectMisses             8754                       # Number of indirect misses.
system.cpu.branchPred.indirectMispredicted         1376                       # Number of mispredicted indirect branches.
system.cpu.commit.commitSquashedInsts        25297997                       # The number of squashed insts skipped by commit
system.cpu.commit.commitNonSpecStalls            5389                       # The number of times commit has been forced to stall to communicate backwards
system.cpu.commit.branchMispredicts             55361                       # The number of times a branch was mispredicted
system.cpu.commit.numCommittedDist::samples     99006100                       # Number of insts commited each cycle
system.cpu.commit.numCommittedDist::mean     1.676861                       # Number of insts commited each cycle
system.cpu.commit.numCommittedDist::stdev     2.570584                       # Number of insts commited each cycle
system.cpu.commit.numCommittedDist::underflows            0      0.00%      0.00% # Number of insts commited each cycle
system.cpu.commit.numCommittedDist::0        49786231     50.29%     50.29% # Number of insts commited each cycle
system.cpu.commit.numCommittedDist::1        19706647     19.90%     70.19% # Number of insts commited each cycle
system.cpu.commit.numCommittedDist::2         8540891      8.63%     78.82% # Number of insts commited each cycle
system.cpu.commit.numCommittedDist::3         3179252      3.21%     82.03% # Number of insts commited each cycle
system.cpu.commit.numCommittedDist::4         3153410      3.19%     85.21% # Number of insts commited each cycle
system.cpu.commit.numCommittedDist::5         1822787      1.84%     87.05% # Number of insts commited each cycle
system.cpu.commit.numCommittedDist::6         1183121      1.19%     88.25% # Number of insts commited each cycle
system.cpu.commit.numCommittedDist::7         2203119      2.23%     90.47% # Number of insts commited each cycle
system.cpu.commit.numCommittedDist::8         9430642      9.53%    100.00% # Number of insts commited each cycle
system.cpu.commit.numCommittedDist::overflows            0      0.00%    100.00% # Number of insts commited each cycle
system.cpu.commit.numCommittedDist::min_value            0                       # Number of insts commited each cycle
system.cpu.commit.numCommittedDist::max_value            8                       # Number of insts commited each cycle
system.cpu.commit.numCommittedDist::total     99006100                       # Number of insts commited each cycle
system.cpu.commit.instsCommitted            100000001                       # Number of instructions committed
system.cpu.commit.opsCommitted              166019455                       # Number of ops (including micro ops) committed
system.cpu.commit.memRefs                    39264133                       # Number of memory references committed
system.cpu.commit.loads                      30740931                       # Number of loads committed
system.cpu.commit.amos                              0                       # Number of atomic instructions committed
system.cpu.commit.membars                         176                       # Number of memory barriers committed
system.cpu.commit.branches                    4827028                       # Number of branches committed
system.cpu.commit.vector                            0                       # Number of committed Vector instructions.
system.cpu.commit.floating                   26165588                       # Number of committed floating point instructions.
system.cpu.commit.integer                   148225635                       # Number of committed integer instructions.
system.cpu.commit.functionCalls                531272                       # Number of function calls committed.
system.cpu.commit.committedInstType_0::No_OpClass      1046605      0.63%      0.63% # Class of committed instruction
system.cpu.commit.committedInstType_0::IntAlu    101615079     61.21%     61.84% # Class of committed instruction
system.cpu.commit.committedInstType_0::IntMult      6312256      3.80%     65.64% # Class of committed instruction
system.cpu.commit.committedInstType_0::IntDiv        97655      0.06%     65.70% # Class of committed instruction
system.cpu.commit.committedInstType_0::FloatAdd      1445015      0.87%     66.57% # Class of committed instruction
system.cpu.commit.committedInstType_0::FloatCmp            0      0.00%     66.57% # Class of committed instruction
system.cpu.commit.committedInstType_0::FloatCvt           32      0.00%     66.57% # Class of committed instruction
system.cpu.commit.committedInstType_0::FloatMult            0      0.00%     66.57% # Class of committed instruction
system.cpu.commit.committedInstType_0::FloatMultAcc            0      0.00%     66.57% # Class of committed instruction
system.cpu.commit.committedInstType_0::FloatDiv            0      0.00%     66.57% # Class of committed instruction
system.cpu.commit.committedInstType_0::FloatMisc            0      0.00%     66.57% # Class of committed instruction
system.cpu.commit.committedInstType_0::FloatSqrt            0      0.00%     66.57% # Class of committed instruction
system.cpu.commit.committedInstType_0::SimdAdd         2294      0.00%     66.57% # Class of committed instruction
system.cpu.commit.committedInstType_0::SimdAddAcc            0      0.00%     66.57% # Class of committed instruction
system.cpu.commit.committedInstType_0::SimdAlu      2855490      1.72%     68.29% # Class of committed instruction
system.cpu.commit.committedInstType_0::SimdCmp           66      0.00%     68.29% # Class of committed instruction
system.cpu.commit.committedInstType_0::SimdCvt         5352      0.00%     68.29% # Class of committed instruction
system.cpu.commit.committedInstType_0::SimdMisc      2865770      1.73%     70.02% # Class of committed instruction
system.cpu.commit.committedInstType_0::SimdMult          248      0.00%     70.02% # Class of committed instruction
system.cpu.commit.committedInstType_0::SimdMultAcc            0      0.00%     70.02% # Class of committed instruction
system.cpu.commit.committedInstType_0::SimdShift          900      0.00%     70.02% # Class of committed instruction
system.cpu.commit.committedInstType_0::SimdShiftAcc            0      0.00%     70.02% # Class of committed instruction
system.cpu.commit.committedInstType_0::SimdDiv            0      0.00%     70.02% # Class of committed instruction
system.cpu.commit.committedInstType_0::SimdSqrt            0      0.00%     70.02% # Class of committed instruction
system.cpu.commit.committedInstType_0::SimdFloatAdd      4779154      2.88%     72.90% # Class of committed instruction
system.cpu.commit.committedInstType_0::SimdFloatAlu            0      0.00%     72.90% # Class of committed instruction
system.cpu.commit.committedInstType_0::SimdFloatCmp            0      0.00%     72.90% # Class of committed instruction
system.cpu.commit.committedInstType_0::SimdFloatCvt      2384878      1.44%     74.34% # Class of committed instruction
system.cpu.commit.committedInstType_0::SimdFloatDiv           15      0.00%     74.34% # Class of committed instruction
system.cpu.commit.committedInstType_0::SimdFloatMisc            0      0.00%     74.34% # Class of committed instruction
system.cpu.commit.committedInstType_0::SimdFloatMult      3344513      2.01%     76.35% # Class of committed instruction
system.cpu.commit.committedInstType_0::SimdFloatMultAcc            0      0.00%     76.35% # Class of committed instruction
system.cpu.commit.committedInstType_0::SimdFloatSqrt            0      0.00%     76.35% # Class of committed instruction
system.cpu.commit.committedInstType_0::SimdReduceAdd            0      0.00%     76.35% # Class of committed instruction
system.cpu.commit.committedInstType_0::SimdReduceAlu            0      0.00%     76.35% # Class of committed instruction
system.cpu.commit.committedInstType_0::SimdReduceCmp            0      0.00%     76.35% # Class of committed instruction
system.cpu.commit.committedInstType_0::SimdFloatReduceAdd            0      0.00%     76.35% # Class of committed instruction
system.cpu.commit.committedInstType_0::SimdFloatReduceCmp            0      0.00%     76.35% # Class of committed instruction
system.cpu.commit.committedInstType_0::SimdAes            0      0.00%     76.35% # Class of committed instruction
system.cpu.commit.committedInstType_0::SimdAesMix            0      0.00%     76.35% # Class of committed instruction
system.cpu.commit.committedInstType_0::SimdSha1Hash            0      0.00%     76.35% # Class of committed instruction
system.cpu.commit.committedInstType_0::SimdSha1Hash2            0      0.00%     76.35% # Class of committed instruction
system.cpu.commit.committedInstType_0::SimdSha256Hash            0      0.00%     76.35% # Class of committed instruction
system.cpu.commit.committedInstType_0::SimdSha256Hash2            0      0.00%     76.35% # Class of committed instruction
system.cpu.commit.committedInstType_0::SimdShaSigma2            0      0.00%     76.35% # Class of committed instruction
system.cpu.commit.committedInstType_0::SimdShaSigma3            0      0.00%     76.35% # Class of committed instruction
system.cpu.commit.committedInstType_0::SimdPredAlu            0      0.00%     76.35% # Class of committed instruction
system.cpu.commit.committedInstType_0::MemRead     24849866     14.97%     91.32% # Class of committed instruction
system.cpu.commit.committedInstType_0::MemWrite      7834725      4.72%     96.04% # Class of committed instruction
system.cpu.commit.committedInstType_0::FloatMemRead      5891065      3.55%     99.59% # Class of committed instruction
system.cpu.commit.committedInstType_0::FloatMemWrite       688477      0.41%    100.00% # Class of committed instruction
system.cpu.commit.committedInstType_0::IprAccess            0      0.00%    100.00% # Class of committed instruction
system.cpu.commit.committedInstType_0::InstPrefetch            0      0.00%    100.00% # Class of committed instruction
system.cpu.commit.committedInstType_0::total    166019455                       # Class of committed instruction
system.cpu.commit.commitEligibleSamples       9430642                       # number cycles where commit BW limit reached
system.cpu.dcache.demand_hits::.cpu.data     42644606                       # number of demand (read+write) hits
system.cpu.dcache.demand_hits::total         42644606                       # number of demand (read+write) hits
system.cpu.dcache.overall_hits::.cpu.data     44017731                       # number of overall hits
system.cpu.dcache.overall_hits::total        44017731                       # number of overall hits
system.cpu.dcache.demand_misses::.cpu.data       517161                       # number of demand (read+write) misses
system.cpu.dcache.demand_misses::total         517161                       # number of demand (read+write) misses
system.cpu.dcache.overall_misses::.cpu.data       674224                       # number of overall misses
system.cpu.dcache.overall_misses::total        674224                       # number of overall misses
system.cpu.dcache.demand_miss_latency::.cpu.data  33835179437                       # number of demand (read+write) miss cycles
system.cpu.dcache.demand_miss_latency::total  33835179437                       # number of demand (read+write) miss cycles
system.cpu.dcache.overall_miss_latency::.cpu.data  33835179437                       # number of overall miss cycles
system.cpu.dcache.overall_miss_latency::total  33835179437                       # number of overall miss cycles
system.cpu.dcache.demand_accesses::.cpu.data     43161767                       # number of demand (read+write) accesses
system.cpu.dcache.demand_accesses::total     43161767                       # number of demand (read+write) accesses
system.cpu.dcache.overall_accesses::.cpu.data     44691955                       # number of overall (read+write) accesses
system.cpu.dcache.overall_accesses::total     44691955                       # number of overall (read+write) accesses
system.cpu.dcache.demand_miss_rate::.cpu.data     0.011982                       # miss rate for demand accesses
system.cpu.dcache.demand_miss_rate::total     0.011982                       # miss rate for demand accesses
system.cpu.dcache.overall_miss_rate::.cpu.data     0.015086                       # miss rate for overall accesses
system.cpu.dcache.overall_miss_rate::total     0.015086                       # miss rate for overall accesses
system.cpu.dcache.demand_avg_miss_latency::.cpu.data 65424.847266                       # average overall miss latency
system.cpu.dcache.demand_avg_miss_latency::total 65424.847266                       # average overall miss latency
system.cpu.dcache.overall_avg_miss_latency::.cpu.data 50183.884639                       # average overall miss latency
system.cpu.dcache.overall_avg_miss_latency::total 50183.884639                       # average overall miss latency
system.cpu.dcache.blocked_cycles::no_mshrs       441759                       # number of cycles access was blocked
system.cpu.dcache.blocked_cycles::no_targets           62                       # number of cycles access was blocked
system.cpu.dcache.blocked::no_mshrs              6639                       # number of cycles access was blocked
system.cpu.dcache.blocked::no_targets               2                       # number of cycles access was blocked
system.cpu.dcache.avg_blocked_cycles::no_mshrs    66.539991                       # average number of cycles each access was blocked
system.cpu.dcache.avg_blocked_cycles::no_targets           31                       # average number of cycles each access was blocked
system.cpu.dcache.writebacks::.writebacks       172412                       # number of writebacks
system.cpu.dcache.writebacks::total            172412                       # number of writebacks
system.cpu.dcache.demand_mshr_hits::.cpu.data       150671                       # number of demand (read+write) MSHR hits
system.cpu.dcache.demand_mshr_hits::total       150671                       # number of demand (read+write) MSHR hits
system.cpu.dcache.overall_mshr_hits::.cpu.data       150671                       # number of overall MSHR hits
system.cpu.dcache.overall_mshr_hits::total       150671                       # number of overall MSHR hits
system.cpu.dcache.demand_mshr_misses::.cpu.data       366490                       # number of demand (read+write) MSHR misses
system.cpu.dcache.demand_mshr_misses::total       366490                       # number of demand (read+write) MSHR misses
system.cpu.dcache.overall_mshr_misses::.cpu.data       423389                       # number of overall MSHR misses
system.cpu.dcache.overall_mshr_misses::total       423389                       # number of overall MSHR misses
system.cpu.dcache.demand_mshr_miss_latency::.cpu.data  24242324937                       # number of demand (read+write) MSHR miss cycles
system.cpu.dcache.demand_mshr_miss_latency::total  24242324937                       # number of demand (read+write) MSHR miss cycles
system.cpu.dcache.overall_mshr_miss_latency::.cpu.data  28509130437                       # number of overall MSHR miss cycles
system.cpu.dcache.overall_mshr_miss_latency::total  28509130437                       # number of overall MSHR miss cycles
system.cpu.dcache.demand_mshr_miss_rate::.cpu.data     0.008491                       # mshr miss rate for demand accesses
system.cpu.dcache.demand_mshr_miss_rate::total     0.008491                       # mshr miss rate for demand accesses
system.cpu.dcache.overall_mshr_miss_rate::.cpu.data     0.009473                       # mshr miss rate for overall accesses
system.cpu.dcache.overall_mshr_miss_rate::total     0.009473                       # mshr miss rate for overall accesses
system.cpu.dcache.demand_avg_mshr_miss_latency::.cpu.data 66147.302619                       # average overall mshr miss latency
system.cpu.dcache.demand_avg_mshr_miss_latency::total 66147.302619                       # average overall mshr miss latency
system.cpu.dcache.overall_avg_mshr_miss_latency::.cpu.data 67335.548248                       # average overall mshr miss latency
system.cpu.dcache.overall_avg_mshr_miss_latency::total 67335.548248                       # average overall mshr miss latency
system.cpu.dcache.replacements                 422876                       # number of replacements
system.cpu.dcache.ReadReq_hits::.cpu.data     34289161                       # number of ReadReq hits
system.cpu.dcache.ReadReq_hits::total        34289161                       # number of ReadReq hits
system.cpu.dcache.ReadReq_misses::.cpu.data       349322                       # number of ReadReq misses
system.cpu.dcache.ReadReq_misses::total        349322                       # number of ReadReq misses
system.cpu.dcache.ReadReq_miss_latency::.cpu.data  21515260500                       # number of ReadReq miss cycles
system.cpu.dcache.ReadReq_miss_latency::total  21515260500                       # number of ReadReq miss cycles
system.cpu.dcache.ReadReq_accesses::.cpu.data     34638483                       # number of ReadReq accesses(hits+misses)
system.cpu.dcache.ReadReq_accesses::total     34638483                       # number of ReadReq accesses(hits+misses)
system.cpu.dcache.ReadReq_miss_rate::.cpu.data     0.010085                       # miss rate for ReadReq accesses
system.cpu.dcache.ReadReq_miss_rate::total     0.010085                       # miss rate for ReadReq accesses
system.cpu.dcache.ReadReq_avg_miss_latency::.cpu.data 61591.484361                       # average ReadReq miss latency
system.cpu.dcache.ReadReq_avg_miss_latency::total 61591.484361                       # average ReadReq miss latency
system.cpu.dcache.ReadReq_mshr_hits::.cpu.data       150662                       # number of ReadReq MSHR hits
system.cpu.dcache.ReadReq_mshr_hits::total       150662                       # number of ReadReq MSHR hits
system.cpu.dcache.ReadReq_mshr_misses::.cpu.data       198660                       # number of ReadReq MSHR misses
system.cpu.dcache.ReadReq_mshr_misses::total       198660                       # number of ReadReq MSHR misses
system.cpu.dcache.ReadReq_mshr_miss_latency::.cpu.data  12090565500                       # number of ReadReq MSHR miss cycles
system.cpu.dcache.ReadReq_mshr_miss_latency::total  12090565500                       # number of ReadReq MSHR miss cycles
system.cpu.dcache.ReadReq_mshr_miss_rate::.cpu.data     0.005735                       # mshr miss rate for ReadReq accesses
system.cpu.dcache.ReadReq_mshr_miss_rate::total     0.005735                       # mshr miss rate for ReadReq accesses
system.cpu.dcache.ReadReq_avg_mshr_miss_latency::.cpu.data 60860.593476                       # average ReadReq mshr miss latency
system.cpu.dcache.ReadReq_avg_mshr_miss_latency::total 60860.593476                       # average ReadReq mshr miss latency
system.cpu.dcache.WriteReq_hits::.cpu.data      8355445                       # number of WriteReq hits
system.cpu.dcache.WriteReq_hits::total        8355445                       # number of WriteReq hits
system.cpu.dcache.WriteReq_misses::.cpu.data       167839                       # number of WriteReq misses
system.cpu.dcache.WriteReq_misses::total       167839                       # number of WriteReq misses
system.cpu.dcache.WriteReq_miss_latency::.cpu.data  12319918937                       # number of WriteReq miss cycles
system.cpu.dcache.WriteReq_miss_latency::total  12319918937                       # number of WriteReq miss cycles
system.cpu.dcache.WriteReq_accesses::.cpu.data      8523284                       # number of WriteReq accesses(hits+misses)
system.cpu.dcache.WriteReq_accesses::total      8523284                       # number of WriteReq accesses(hits+misses)
system.cpu.dcache.WriteReq_miss_rate::.cpu.data     0.019692                       # miss rate for WriteReq accesses
system.cpu.dcache.WriteReq_miss_rate::total     0.019692                       # miss rate for WriteReq accesses
system.cpu.dcache.WriteReq_avg_miss_latency::.cpu.data 73403.195545                       # average WriteReq miss latency
system.cpu.dcache.WriteReq_avg_miss_latency::total 73403.195545                       # average WriteReq miss latency
system.cpu.dcache.WriteReq_mshr_hits::.cpu.data            9                       # number of WriteReq MSHR hits
system.cpu.dcache.WriteReq_mshr_hits::total            9                       # number of WriteReq MSHR hits
system.cpu.dcache.WriteReq_mshr_misses::.cpu.data       167830                       # number of WriteReq MSHR misses
system.cpu.dcache.WriteReq_mshr_misses::total       167830                       # number of WriteReq MSHR misses
system.cpu.dcache.WriteReq_mshr_miss_latency::.cpu.data  12151759437                       # number of WriteReq MSHR miss cycles
system.cpu.dcache.WriteReq_mshr_miss_latency::total  12151759437                       # number of WriteReq MSHR miss cycles
system.cpu.dcache.WriteReq_mshr_miss_rate::.cpu.data     0.019691                       # mshr miss rate for WriteReq accesses
system.cpu.dcache.WriteReq_mshr_miss_rate::total     0.019691                       # mshr miss rate for WriteReq accesses
system.cpu.dcache.WriteReq_avg_mshr_miss_latency::.cpu.data 72405.168546                       # average WriteReq mshr miss latency
system.cpu.dcache.WriteReq_avg_mshr_miss_latency::total 72405.168546                       # average WriteReq mshr miss latency
system.cpu.dcache.SoftPFReq_hits::.cpu.data      1373125                       # number of SoftPFReq hits
system.cpu.dcache.SoftPFReq_hits::total       1373125                       # number of SoftPFReq hits
system.cpu.dcache.SoftPFReq_misses::.cpu.data       157063                       # number of SoftPFReq misses
system.cpu.dcache.SoftPFReq_misses::total       157063                       # number of SoftPFReq misses
system.cpu.dcache.SoftPFReq_accesses::.cpu.data      1530188                       # number of SoftPFReq accesses(hits+misses)
system.cpu.dcache.SoftPFReq_accesses::total      1530188                       # number of SoftPFReq accesses(hits+misses)
system.cpu.dcache.SoftPFReq_miss_rate::.cpu.data     0.102643                       # miss rate for SoftPFReq accesses
system.cpu.dcache.SoftPFReq_miss_rate::total     0.102643                       # miss rate for SoftPFReq accesses
system.cpu.dcache.SoftPFReq_mshr_misses::.cpu.data        56899                       # number of SoftPFReq MSHR misses
system.cpu.dcache.SoftPFReq_mshr_misses::total        56899                       # number of SoftPFReq MSHR misses
system.cpu.dcache.SoftPFReq_mshr_miss_latency::.cpu.data   4266805500                       # number of SoftPFReq MSHR miss cycles
system.cpu.dcache.SoftPFReq_mshr_miss_latency::total   4266805500                       # number of SoftPFReq MSHR miss cycles
system.cpu.dcache.SoftPFReq_mshr_miss_rate::.cpu.data     0.037184                       # mshr miss rate for SoftPFReq accesses
system.cpu.dcache.SoftPFReq_mshr_miss_rate::total     0.037184                       # mshr miss rate for SoftPFReq accesses
system.cpu.dcache.SoftPFReq_avg_mshr_miss_latency::.cpu.data 74989.112287                       # average SoftPFReq mshr miss latency
system.cpu.dcache.SoftPFReq_avg_mshr_miss_latency::total 74989.112287                       # average SoftPFReq mshr miss latency
system.cpu.dcache.power_state.pwrStateResidencyTicks::UNDEFINED  51305836000                       # Cumulative time (in ticks) in various power states
system.cpu.dcache.tags.tagsinuse           511.680247                       # Cycle average of tags in use
system.cpu.dcache.tags.total_refs            44441121                       # Total number of references to valid blocks.
system.cpu.dcache.tags.sampled_refs            423388                       # Sample count of references to valid blocks.
system.cpu.dcache.tags.avg_refs            104.965471                       # Average number of references to valid blocks.
system.cpu.dcache.tags.warmup_cycle            163000                       # Cycle when the warmup percentage was hit.
system.cpu.dcache.tags.occ_blocks::.cpu.data   511.680247                       # Average occupied blocks per requestor
system.cpu.dcache.tags.occ_percent::.cpu.data     0.999375                       # Average percentage of cache occupancy
system.cpu.dcache.tags.occ_percent::total     0.999375                       # Average percentage of cache occupancy
system.cpu.dcache.tags.occ_task_id_blocks::1024          512                       # Occupied blocks per task id
system.cpu.dcache.tags.age_task_id_blocks_1024::0           57                       # Occupied blocks per task id
system.cpu.dcache.tags.age_task_id_blocks_1024::1          356                       # Occupied blocks per task id
system.cpu.dcache.tags.age_task_id_blocks_1024::2           92                       # Occupied blocks per task id
system.cpu.dcache.tags.age_task_id_blocks_1024::3            7                       # Occupied blocks per task id
system.cpu.dcache.tags.occ_task_id_percent::1024            1                       # Percentage of cache occupancy per task id
system.cpu.dcache.tags.tag_accesses          89807298                       # Number of tag accesses
system.cpu.dcache.tags.data_accesses         89807298                       # Number of data accesses
system.cpu.dcache.tags.power_state.pwrStateResidencyTicks::UNDEFINED  51305836000                       # Cumulative time (in ticks) in various power states
system.cpu.decode.idleCycles                  7878522                       # Number of cycles decode is idle
system.cpu.decode.blockedCycles              68398196                       # Number of cycles decode is blocked
system.cpu.decode.runCycles                  11128656                       # Number of cycles decode is running
system.cpu.decode.unblockCycles              14678675                       # Number of cycles decode is unblocking
system.cpu.decode.squashCycles                 335327                       # Number of cycles decode is squashing
system.cpu.decode.branchResolved              3099885                       # Number of times decode resolved a  branch
system.cpu.decode.branchMispred                  1804                       # Number of times decode detected a branch misprediction
system.cpu.decode.decodedInsts              199591219                       # Number of instructions handled by decode
system.cpu.decode.squashedInsts                  8648                       # Number of squashed instructions handled by decode
system.cpu.dtb.rdAccesses                    38176312                       # TLB accesses on read requests
system.cpu.dtb.wrAccesses                    16926962                       # TLB accesses on write requests
system.cpu.dtb.rdMisses                          5652                       # TLB misses on read requests
system.cpu.dtb.wrMisses                        189687                       # TLB misses on write requests
system.cpu.dtb.walker.power_state.pwrStateResidencyTicks::UNDEFINED  51305836000                       # Cumulative time (in ticks) in various power states
system.cpu.dtb_walker_cache.blocked_cycles::no_mshrs            0                       # number of cycles access was blocked
system.cpu.dtb_walker_cache.blocked_cycles::no_targets            0                       # number of cycles access was blocked
system.cpu.dtb_walker_cache.blocked::no_mshrs            0                       # number of cycles access was blocked
system.cpu.dtb_walker_cache.blocked::no_targets            0                       # number of cycles access was blocked
system.cpu.dtb_walker_cache.avg_blocked_cycles::no_mshrs          nan                       # average number of cycles each access was blocked
system.cpu.dtb_walker_cache.avg_blocked_cycles::no_targets          nan                       # average number of cycles each access was blocked
system.cpu.dtb_walker_cache.replacements            0                       # number of replacements
system.cpu.dtb_walker_cache.power_state.pwrStateResidencyTicks::UNDEFINED  51305836000                       # Cumulative time (in ticks) in various power states
system.cpu.dtb_walker_cache.tags.tagsinuse            0                       # Cycle average of tags in use
system.cpu.dtb_walker_cache.tags.total_refs            0                       # Total number of references to valid blocks.
system.cpu.dtb_walker_cache.tags.sampled_refs            0                       # Sample count of references to valid blocks.
system.cpu.dtb_walker_cache.tags.avg_refs          nan                       # Average number of references to valid blocks.
system.cpu.dtb_walker_cache.tags.warmup_cycle            0                       # Cycle when the warmup percentage was hit.
system.cpu.dtb_walker_cache.tags.tag_accesses            0                       # Number of tag accesses
system.cpu.dtb_walker_cache.tags.data_accesses            0                       # Number of data accesses
system.cpu.dtb_walker_cache.tags.power_state.pwrStateResidencyTicks::UNDEFINED  51305836000                       # Cumulative time (in ticks) in various power states
system.cpu.fetch.icacheStallCycles           13025970                       # Number of cycles fetch is stalled on an Icache miss
system.cpu.fetch.insts                      118904977                       # Number of instructions fetch has processed
system.cpu.fetch.branches                     6409075                       # Number of branches that fetch encountered
system.cpu.fetch.predictedBranches            4609318                       # Number of branches that fetch has predicted taken
system.cpu.fetch.cycles                      89049512                       # Number of cycles fetch has run and was not squashing or blocked
system.cpu.fetch.squashCycles                  674150                       # Number of cycles fetch has spent squashing
system.cpu.fetch.miscStallCycles                  894                       # Number of cycles fetch has spent waiting on interrupts,or bad addresses, or out of MSHRs
system.cpu.fetch.pendingTrapStallCycles          5873                       # Number of stall cycles due to pending traps
system.cpu.fetch.pendingQuiesceStallCycles            9                       # Number of stall cycles due to pending quiesce instructions
system.cpu.fetch.icacheWaitRetryStallCycles           43                       # Number of stall cycles due to full MSHR
system.cpu.fetch.cacheLines                  12726312                       # Number of cache lines fetched
system.cpu.fetch.icacheSquashes                 27432                       # Number of outstanding Icache misses that were squashed
system.cpu.fetch.nisnDist::samples          102419376                       # Number of instructions fetched each cycle (Total)
system.cpu.fetch.nisnDist::mean              2.058780                       # Number of instructions fetched each cycle (Total)
system.cpu.fetch.nisnDist::stdev             3.215947                       # Number of instructions fetched each cycle (Total)
system.cpu.fetch.nisnDist::underflows               0      0.00%      0.00% # Number of instructions fetched each cycle (Total)
system.cpu.fetch.nisnDist::0                 67572880     65.98%     65.98% # Number of instructions fetched each cycle (Total)
system.cpu.fetch.nisnDist::1                  1950909      1.90%     67.88% # Number of instructions fetched each cycle (Total)
system.cpu.fetch.nisnDist::2                  3577678      3.49%     71.37% # Number of instructions fetched each cycle (Total)
system.cpu.fetch.nisnDist::3                  2658908      2.60%     73.97% # Number of instructions fetched each cycle (Total)
system.cpu.fetch.nisnDist::4                  2009766      1.96%     75.93% # Number of instructions fetched each cycle (Total)
system.cpu.fetch.nisnDist::5                  2088983      2.04%     77.97% # Number of instructions fetched each cycle (Total)
system.cpu.fetch.nisnDist::6                  1393986      1.36%     79.33% # Number of instructions fetched each cycle (Total)
system.cpu.fetch.nisnDist::7                  2402091      2.35%     81.68% # Number of instructions fetched each cycle (Total)
system.cpu.fetch.nisnDist::8                 18764175     18.32%    100.00% # Number of instructions fetched each cycle (Total)
system.cpu.fetch.nisnDist::overflows                0      0.00%    100.00% # Number of instructions fetched each cycle (Total)
system.cpu.fetch.nisnDist::min_value                0                       # Number of instructions fetched each cycle (Total)
system.cpu.fetch.nisnDist::max_value                8                       # Number of instructions fetched each cycle (Total)
system.cpu.fetch.nisnDist::total            102419376                       # Number of instructions fetched each cycle (Total)
system.cpu.fetch.branchRate                  0.062460                       # Number of branch fetches per cycle
system.cpu.fetch.rate                        1.158786                       # Number of inst fetches per cycle
system.cpu.icache.demand_hits::.cpu.inst     12721364                       # number of demand (read+write) hits
system.cpu.icache.demand_hits::total         12721364                       # number of demand (read+write) hits
system.cpu.icache.overall_hits::.cpu.inst     12721364                       # number of overall hits
system.cpu.icache.overall_hits::total        12721364                       # number of overall hits
system.cpu.icache.demand_misses::.cpu.inst         4947                       # number of demand (read+write) misses
system.cpu.icache.demand_misses::total           4947                       # number of demand (read+write) misses
system.cpu.icache.overall_misses::.cpu.inst         4947                       # number of overall misses
system.cpu.icache.overall_misses::total          4947                       # number of overall misses
system.cpu.icache.demand_miss_latency::.cpu.inst    288027500                       # number of demand (read+write) miss cycles
system.cpu.icache.demand_miss_latency::total    288027500                       # number of demand (read+write) miss cycles
system.cpu.icache.overall_miss_latency::.cpu.inst    288027500                       # number of overall miss cycles
system.cpu.icache.overall_miss_latency::total    288027500                       # number of overall miss cycles
system.cpu.icache.demand_accesses::.cpu.inst     12726311                       # number of demand (read+write) accesses
system.cpu.icache.demand_accesses::total     12726311                       # number of demand (read+write) accesses
system.cpu.icache.overall_accesses::.cpu.inst     12726311                       # number of overall (read+write) accesses
system.cpu.icache.overall_accesses::total     12726311                       # number of overall (read+write) accesses
system.cpu.icache.demand_miss_rate::.cpu.inst     0.000389                       # miss rate for demand accesses
system.cpu.icache.demand_miss_rate::total     0.000389                       # miss rate for demand accesses
system.cpu.icache.overall_miss_rate::.cpu.inst     0.000389                       # miss rate for overall accesses
system.cpu.icache.overall_miss_rate::total     0.000389                       # miss rate for overall accesses
system.cpu.icache.demand_avg_miss_latency::.cpu.inst 58222.660198                       # average overall miss latency
system.cpu.icache.demand_avg_miss_latency::total 58222.660198                       # average overall miss latency
system.cpu.icache.overall_avg_miss_latency::.cpu.inst 58222.660198                       # average overall miss latency
system.cpu.icache.overall_avg_miss_latency::total 58222.660198                       # average overall miss latency
system.cpu.icache.blocked_cycles::no_mshrs          711                       # number of cycles access was blocked
system.cpu.icache.blocked_cycles::no_targets            0                       # number of cycles access was blocked
system.cpu.icache.blocked::no_mshrs                17                       # number of cycles access was blocked
system.cpu.icache.blocked::no_targets               0                       # number of cycles access was blocked
system.cpu.icache.avg_blocked_cycles::no_mshrs    41.823529                       # average number of cycles each access was blocked
system.cpu.icache.avg_blocked_cycles::no_targets          nan                       # average number of cycles each access was blocked
system.cpu.icache.writebacks::.writebacks         3312                       # number of writebacks
system.cpu.icache.writebacks::total              3312                       # number of writebacks
system.cpu.icache.demand_mshr_hits::.cpu.inst         1122                       # number of demand (read+write) MSHR hits
system.cpu.icache.demand_mshr_hits::total         1122                       # number of demand (read+write) MSHR hits
system.cpu.icache.overall_mshr_hits::.cpu.inst         1122                       # number of overall MSHR hits
system.cpu.icache.overall_mshr_hits::total         1122                       # number of overall MSHR hits
system.cpu.icache.demand_mshr_misses::.cpu.inst         3825                       # number of demand (read+write) MSHR misses
system.cpu.icache.demand_mshr_misses::total         3825                       # number of demand (read+write) MSHR misses
system.cpu.icache.overall_mshr_misses::.cpu.inst         3825                       # number of overall MSHR misses
system.cpu.icache.overall_mshr_misses::total         3825                       # number of overall MSHR misses
system.cpu.icache.demand_mshr_miss_latency::.cpu.inst    226897500                       # number of demand (read+write) MSHR miss cycles
system.cpu.icache.demand_mshr_miss_latency::total    226897500                       # number of demand (read+write) MSHR miss cycles
system.cpu.icache.overall_mshr_miss_latency::.cpu.inst    226897500                       # number of overall MSHR miss cycles
system.cpu.icache.overall_mshr_miss_latency::total    226897500                       # number of overall MSHR miss cycles
system.cpu.icache.demand_mshr_miss_rate::.cpu.inst     0.000301                       # mshr miss rate for demand accesses
system.cpu.icache.demand_mshr_miss_rate::total     0.000301                       # mshr miss rate for demand accesses
system.cpu.icache.overall_mshr_miss_rate::.cpu.inst     0.000301                       # mshr miss rate for overall accesses
system.cpu.icache.overall_mshr_miss_rate::total     0.000301                       # mshr miss rate for overall accesses
system.cpu.icache.demand_avg_mshr_miss_latency::.cpu.inst 59319.607843                       # average overall mshr miss latency
system.cpu.icache.demand_avg_mshr_miss_latency::total 59319.607843                       # average overall mshr miss latency
system.cpu.icache.overall_avg_mshr_miss_latency::.cpu.inst 59319.607843                       # average overall mshr miss latency
system.cpu.icache.overall_avg_mshr_miss_latency::total 59319.607843                       # average overall mshr miss latency
system.cpu.icache.replacements                   3312                       # number of replacements
system.cpu.icache.ReadReq_hits::.cpu.inst     12721364                       # number of ReadReq hits
system.cpu.icache.ReadReq_hits::total        12721364                       # number of ReadReq hits
system.cpu.icache.ReadReq_misses::.cpu.inst         4947                       # number of ReadReq misses
system.cpu.icache.ReadReq_misses::total          4947                       # number of ReadReq misses
system.cpu.icache.ReadReq_miss_latency::.cpu.inst    288027500                       # number of ReadReq miss cycles
system.cpu.icache.ReadReq_miss_latency::total    288027500                       # number of ReadReq miss cycles
system.cpu.icache.ReadReq_accesses::.cpu.inst     12726311                       # number of ReadReq accesses(hits+misses)
system.cpu.icache.ReadReq_accesses::total     12726311                       # number of ReadReq accesses(hits+misses)
system.cpu.icache.ReadReq_miss_rate::.cpu.inst     0.000389                       # miss rate for ReadReq accesses
system.cpu.icache.ReadReq_miss_rate::total     0.000389                       # miss rate for ReadReq accesses
system.cpu.icache.ReadReq_avg_miss_latency::.cpu.inst 58222.660198                       # average ReadReq miss latency
system.cpu.icache.ReadReq_avg_miss_latency::total 58222.660198                       # average ReadReq miss latency
system.cpu.icache.ReadReq_mshr_hits::.cpu.inst         1122                       # number of ReadReq MSHR hits
system.cpu.icache.ReadReq_mshr_hits::total         1122                       # number of ReadReq MSHR hits
system.cpu.icache.ReadReq_mshr_misses::.cpu.inst         3825                       # number of ReadReq MSHR misses
system.cpu.icache.ReadReq_mshr_misses::total         3825                       # number of ReadReq MSHR misses
system.cpu.icache.ReadReq_mshr_miss_latency::.cpu.inst    226897500                       # number of ReadReq MSHR miss cycles
system.cpu.icache.ReadReq_mshr_miss_latency::total    226897500                       # number of ReadReq MSHR miss cycles
system.cpu.icache.ReadReq_mshr_miss_rate::.cpu.inst     0.000301                       # mshr miss rate for ReadReq accesses
system.cpu.icache.ReadReq_mshr_miss_rate::total     0.000301                       # mshr miss rate for ReadReq accesses
system.cpu.icache.ReadReq_avg_mshr_miss_latency::.cpu.inst 59319.607843                       # average ReadReq mshr miss latency
system.cpu.icache.ReadReq_avg_mshr_miss_latency::total 59319.607843                       # average ReadReq mshr miss latency
system.cpu.icache.power_state.pwrStateResidencyTicks::UNDEFINED  51305836000                       # Cumulative time (in ticks) in various power states
system.cpu.icache.tags.tagsinuse           511.545363                       # Cycle average of tags in use
system.cpu.icache.tags.total_refs            12725189                       # Total number of references to valid blocks.
system.cpu.icache.tags.sampled_refs              3825                       # Sample count of references to valid blocks.
system.cpu.icache.tags.avg_refs           3326.846797                       # Average number of references to valid blocks.
system.cpu.icache.tags.warmup_cycle             79500                       # Cycle when the warmup percentage was hit.
system.cpu.icache.tags.occ_blocks::.cpu.inst   511.545363                       # Average occupied blocks per requestor
system.cpu.icache.tags.occ_percent::.cpu.inst     0.999112                       # Average percentage of cache occupancy
system.cpu.icache.tags.occ_percent::total     0.999112                       # Average percentage of cache occupancy
system.cpu.icache.tags.occ_task_id_blocks::1024          512                       # Occupied blocks per task id
system.cpu.icache.tags.age_task_id_blocks_1024::3           12                       # Occupied blocks per task id
system.cpu.icache.tags.age_task_id_blocks_1024::4          500                       # Occupied blocks per task id
system.cpu.icache.tags.occ_task_id_percent::1024            1                       # Percentage of cache occupancy per task id
system.cpu.icache.tags.tag_accesses          25456447                       # Number of tag accesses
system.cpu.icache.tags.data_accesses         25456447                       # Number of data accesses
system.cpu.icache.tags.power_state.pwrStateResidencyTicks::UNDEFINED  51305836000                       # Cumulative time (in ticks) in various power states
system.cpu.interrupts.clk_domain.clock           8000                       # Clock period in ticks
system.cpu.itb.rdAccesses                           0                       # TLB accesses on read requests
system.cpu.itb.wrAccesses                    12727222                       # TLB accesses on write requests
system.cpu.itb.rdMisses                             0                       # TLB misses on read requests
system.cpu.itb.wrMisses                          1177                       # TLB misses on write requests
system.cpu.itb.walker.power_state.pwrStateResidencyTicks::UNDEFINED  51305836000                       # Cumulative time (in ticks) in various power states
system.cpu.itb_walker_cache.blocked_cycles::no_mshrs            0                       # number of cycles access was blocked
system.cpu.itb_walker_cache.blocked_cycles::no_targets            0                       # number of cycles access was blocked
system.cpu.itb_walker_cache.blocked::no_mshrs            0                       # number of cycles access was blocked
system.cpu.itb_walker_cache.blocked::no_targets            0                       # number of cycles access was blocked
system.cpu.itb_walker_cache.avg_blocked_cycles::no_mshrs          nan                       # average number of cycles each access was blocked
system.cpu.itb_walker_cache.avg_blocked_cycles::no_targets          nan                       # average number of cycles each access was blocked
system.cpu.itb_walker_cache.replacements            0                       # number of replacements
system.cpu.itb_walker_cache.power_state.pwrStateResidencyTicks::UNDEFINED  51305836000                       # Cumulative time (in ticks) in various power states
system.cpu.itb_walker_cache.tags.tagsinuse            0                       # Cycle average of tags in use
system.cpu.itb_walker_cache.tags.total_refs            0                       # Total number of references to valid blocks.
system.cpu.itb_walker_cache.tags.sampled_refs            0                       # Sample count of references to valid blocks.
system.cpu.itb_walker_cache.tags.avg_refs          nan                       # Average number of references to valid blocks.
system.cpu.itb_walker_cache.tags.warmup_cycle            0                       # Cycle when the warmup percentage was hit.
system.cpu.itb_walker_cache.tags.tag_accesses            0                       # Number of tag accesses
system.cpu.itb_walker_cache.tags.data_accesses            0                       # Number of data accesses
system.cpu.itb_walker_cache.tags.power_state.pwrStateResidencyTicks::UNDEFINED  51305836000                       # Cumulative time (in ticks) in various power states
system.cpu.lsq0.forwLoads                     1990990                       # Number of loads that had data forwarded from stores
system.cpu.lsq0.squashedLoads                 7644064                       # Number of loads squashed
system.cpu.lsq0.ignoredResponses                 2998                       # Number of memory responses ignored because the instruction is squashed
system.cpu.lsq0.memOrderViolation                 478                       # Number of memory ordering violations
system.cpu.lsq0.squashedStores                9180832                       # Number of stores squashed
system.cpu.lsq0.rescheduledLoads                15887                       # Number of loads that were rescheduled
system.cpu.lsq0.blockedByCache                   5801                       # Number of times an access to memory failed due to the cache being blocked
system.cpu.power_state.pwrStateResidencyTicks::ON  51305836000                       # Cumulative time (in ticks) in various power states
system.cpu.rename.squashCycles                 335327                       # Number of cycles rename is squashing
system.cpu.rename.idleCycles                 12558239                       # Number of cycles rename is idle
system.cpu.rename.blockCycles                25437905                       # Number of cycles rename is blocking
system.cpu.rename.serializeStallCycles           3313                       # count of cycles rename stalledfor serializing inst
system.cpu.rename.runCycles                  20889425                       # Number of cycles rename is running
system.cpu.rename.unblockCycles              43195167                       # Number of cycles rename is unblocking
system.cpu.rename.renamedInsts              197576089                       # Number of instructions processed by rename
system.cpu.rename.ROBFullEvents                 11129                       # Number of times rename has blocked due to ROB full
system.cpu.rename.IQFullEvents               21696764                       # Number of times rename has blocked due to IQ full
system.cpu.rename.LQFullEvents                1540237                       # Number of times rename has blocked due to LQ full
system.cpu.rename.SQFullEvents               16833341                       # Number of times rename has blocked due to SQ full
system.cpu.rename.renamedOperands           250382693                       # Number of destination operands rename has renamed
system.cpu.rename.lookups                   481203632                       # Number of register rename lookups that rename has made
system.cpu.rename.intLookups                326534965                       # Number of integer rename lookups
system.cpu.rename.fpLookups                  48585834                       # Number of floating rename lookups
system.cpu.rename.committedMaps             225115857                       # Number of HB maps that are committed
system.cpu.rename.undoneMaps                 25266704                       # Number of HB maps that are undone due to squashing
system.cpu.rename.serializing                      63                       # count of serializing insts renamed
system.cpu.rename.tempSerializing                  30                       # count of temporary serializing insts renamed
system.cpu.rename.skidInsts                  65897382                       # count of insts added to the skid buffer
system.cpu.rob.reads                        277258695                       # The number of ROB reads
system.cpu.rob.writes                       386048726                       # The number of ROB writes
system.cpu.thread_0.numInsts                100000001                       # Number of Instructions committed
system.cpu.thread_0.numOps                  166019455                       # Number of Ops committed
system.cpu.thread_0.numMemRefs                      0                       # Number of Memory References
system.cpu_clk_domain.clock                       500                       # Clock period in ticks
system.cpu_voltage_domain.voltage                   1                       # Voltage in Volts
system.l2.demand_hits::.cpu.inst                  910                       # number of demand (read+write) hits
system.l2.demand_hits::.cpu.data                38532                       # number of demand (read+write) hits
system.l2.demand_hits::total                    39442                       # number of demand (read+write) hits
system.l2.overall_hits::.cpu.inst                 910                       # number of overall hits
system.l2.overall_hits::.cpu.data               38532                       # number of overall hits
system.l2.overall_hits::total                   39442                       # number of overall hits
system.l2.demand_misses::.cpu.inst               2913                       # number of demand (read+write) misses
system.l2.demand_misses::.cpu.data             384857                       # number of demand (read+write) misses
system.l2.demand_misses::total                 387770                       # number of demand (read+write) misses
system.l2.overall_misses::.cpu.inst              2913                       # number of overall misses
system.l2.overall_misses::.cpu.data            384857                       # number of overall misses
system.l2.overall_misses::total                387770                       # number of overall misses
system.l2.demand_miss_latency::.cpu.inst    211309000                       # number of demand (read+write) miss cycles
system.l2.demand_miss_latency::.cpu.data  27446368500                       # number of demand (read+write) miss cycles
system.l2.demand_miss_latency::total      27657677500                       # number of demand (read+write) miss cycles
system.l2.overall_miss_latency::.cpu.inst    211309000                       # number of overall miss cycles
system.l2.overall_miss_latency::.cpu.data  27446368500                       # number of overall miss cycles
system.l2.overall_miss_latency::total     27657677500                       # number of overall miss cycles
system.l2.demand_accesses::.cpu.inst             3823                       # number of demand (read+write) accesses
[...]
system.mem_ctrls.dram.writeBursts              165739                       # Number of DRAM write bursts
system.mem_ctrls.dram.perBankRdBursts::0        24368                       # Per bank write bursts
system.mem_ctrls.dram.perBankRdBursts::1        24835                       # Per bank write bursts
system.mem_ctrls.dram.perBankRdBursts::2        24578                       # Per bank write bursts
system.mem_ctrls.dram.perBankRdBursts::3        24747                       # Per bank write bursts
system.mem_ctrls.dram.perBankRdBursts::4        24121                       # Per bank write bursts
system.mem_ctrls.dram.perBankRdBursts::5        24155                       # Per bank write bursts
system.mem_ctrls.dram.perBankRdBursts::6        23844                       # Per bank write bursts
system.mem_ctrls.dram.perBankRdBursts::7        24133                       # Per bank write bursts
system.mem_ctrls.dram.perBankRdBursts::8        23983                       # Per bank write bursts
system.mem_ctrls.dram.perBankRdBursts::9        23886                       # Per bank write bursts
system.mem_ctrls.dram.perBankRdBursts::10        23888                       # Per bank write bursts
system.mem_ctrls.dram.perBankRdBursts::11        24083                       # Per bank write bursts
system.mem_ctrls.dram.perBankRdBursts::12        23990                       # Per bank write bursts
system.mem_ctrls.dram.perBankRdBursts::13        24229                       # Per bank write bursts
system.mem_ctrls.dram.perBankRdBursts::14        24604                       # Per bank write bursts
system.mem_ctrls.dram.perBankRdBursts::15        24318                       # Per bank write bursts
system.mem_ctrls.dram.perBankWrBursts::0        10216                       # Per bank write bursts
system.mem_ctrls.dram.perBankWrBursts::1        10510                       # Per bank write bursts
system.mem_ctrls.dram.perBankWrBursts::2        10224                       # Per bank write bursts
system.mem_ctrls.dram.perBankWrBursts::3        10257                       # Per bank write bursts
system.mem_ctrls.dram.perBankWrBursts::4        10133                       # Per bank write bursts
system.mem_ctrls.dram.perBankWrBursts::5        10307                       # Per bank write bursts
system.mem_ctrls.dram.perBankWrBursts::6        10268                       # Per bank write bursts
system.mem_ctrls.dram.perBankWrBursts::7        10424                       # Per bank write bursts
system.mem_ctrls.dram.perBankWrBursts::8        10316                       # Per bank write bursts
system.mem_ctrls.dram.perBankWrBursts::9        10232                       # Per bank write bursts
system.mem_ctrls.dram.perBankWrBursts::10        10327                       # Per bank write bursts
system.mem_ctrls.dram.perBankWrBursts::11        10415                       # Per bank write bursts
system.mem_ctrls.dram.perBankWrBursts::12        10417                       # Per bank write bursts
system.mem_ctrls.dram.perBankWrBursts::13        10680                       # Per bank write bursts
system.mem_ctrls.dram.perBankWrBursts::14        10670                       # Per bank write bursts
system.mem_ctrls.dram.perBankWrBursts::15        10343                       # Per bank write bursts
system.mem_ctrls.dram.totQLat              3626434000                       # Total ticks spent queuing
system.mem_ctrls.dram.totBusLat            1938810000                       # Total ticks spent in databus transfers
system.mem_ctrls.dram.totMemAccLat        10896971500                       # Total ticks spent from burst creation until serviced by the DRAM
system.mem_ctrls.dram.avgQLat                 9352.22                       # Average queueing delay per DRAM burst
system.mem_ctrls.dram.avgBusLat               5000.00                       # Average bus latency per DRAM burst
system.mem_ctrls.dram.avgMemAccLat           28102.22                       # Average memory access latency per DRAM burst
system.mem_ctrls.dram.readRowHits              326598                       # Number of row buffer hits during reads
system.mem_ctrls.dram.writeRowHits             139073                       # Number of row buffer hits during writes
system.mem_ctrls.dram.readRowHitRate            84.23                       # Row buffer hit rate for reads
system.mem_ctrls.dram.writeRowHitRate           83.91                       # Row buffer hit rate for writes
system.mem_ctrls.dram.bytesPerActivate::samples        87827                       # Bytes accessed per row activation
system.mem_ctrls.dram.bytesPerActivate::mean   403.328908                       # Bytes accessed per row activation
system.mem_ctrls.dram.bytesPerActivate::gmean   252.747809                       # Bytes accessed per row activation
system.mem_ctrls.dram.bytesPerActivate::stdev   348.664547                       # Bytes accessed per row activation
system.mem_ctrls.dram.bytesPerActivate::0-127        22841     26.01%     26.01% # Bytes accessed per row activation
system.mem_ctrls.dram.bytesPerActivate::128-255        17048     19.41%     45.42% # Bytes accessed per row activation
system.mem_ctrls.dram.bytesPerActivate::256-383         9179     10.45%     55.87% # Bytes accessed per row activation
system.mem_ctrls.dram.bytesPerActivate::384-511         8920     10.16%     66.03% # Bytes accessed per row activation
system.mem_ctrls.dram.bytesPerActivate::512-639         5463      6.22%     72.25% # Bytes accessed per row activation
system.mem_ctrls.dram.bytesPerActivate::640-767         3665      4.17%     76.42% # Bytes accessed per row activation
system.mem_ctrls.dram.bytesPerActivate::768-895         4715      5.37%     81.79% # Bytes accessed per row activation
system.mem_ctrls.dram.bytesPerActivate::896-1023         3834      4.37%     86.15% # Bytes accessed per row activation
system.mem_ctrls.dram.bytesPerActivate::1024-1151        12162     13.85%    100.00% # Bytes accessed per row activation
system.mem_ctrls.dram.bytesPerActivate::total        87827                       # Bytes accessed per row activation
system.mem_ctrls.dram.bytesRead              24816768                       # Total number of bytes read from DRAM
system.mem_ctrls.dram.bytesWritten           10607296                       # Total number of bytes written to DRAM
system.mem_ctrls.dram.avgRdBW              483.702634                       # Average DRAM read bandwidth in MiBytes/s
system.mem_ctrls.dram.avgWrBW              206.746383                       # Average DRAM write bandwidth in MiBytes/s
system.mem_ctrls.dram.peakBW                 12800.00                       # Theoretical peak bandwidth in MiByte/s
system.mem_ctrls.dram.busUtil                    5.39                       # Data bus utilization in percentage
system.mem_ctrls.dram.busUtilRead                3.78                       # Data bus utilization in percentage for reads
system.mem_ctrls.dram.busUtilWrite               1.62                       # Data bus utilization in percentage for writes
system.mem_ctrls.dram.pageHitRate               84.13                       # Row buffer hit rate, read and write combined
system.mem_ctrls.dram.power_state.pwrStateResidencyTicks::UNDEFINED  51305836000                       # Cumulative time (in ticks) in various power states
system.mem_ctrls.dram.rank0.actEnergy       311468220                       # Energy for activate commands per rank (pJ)
system.mem_ctrls.dram.rank0.preEnergy       165537900                       # Energy for precharge commands per rank (pJ)
system.mem_ctrls.dram.rank0.readEnergy     1390736340                       # Energy for read commands per rank (pJ)
system.mem_ctrls.dram.rank0.writeEnergy     429809580                       # Energy for write commands per rank (pJ)
system.mem_ctrls.dram.rank0.refreshEnergy 4049862960.000000                       # Energy for refresh commands per rank (pJ)
system.mem_ctrls.dram.rank0.actBackEnergy  19064555160                       # Energy for active background per rank (pJ)
system.mem_ctrls.dram.rank0.preBackEnergy   3647078880                       # Energy for precharge background per rank (pJ)
system.mem_ctrls.dram.rank0.actPowerDownEnergy            0                       # Energy for active power-down per rank (pJ)
system.mem_ctrls.dram.rank0.prePowerDownEnergy            0                       # Energy for precharge power-down per rank (pJ)
system.mem_ctrls.dram.rank0.selfRefreshEnergy            0                       # Energy for self refresh per rank (pJ)
system.mem_ctrls.dram.rank0.totalEnergy   29059049040                       # Total energy per rank (pJ)
system.mem_ctrls.dram.rank0.averagePower   566.388764                       # Core power per rank (mW)
system.mem_ctrls.dram.rank0.totalIdleTime            0                       # Total Idle time Per DRAM Rank
system.mem_ctrls.dram.rank0.pwrStateTime::IDLE   9240954250                       # Time in different power states
system.mem_ctrls.dram.rank0.pwrStateTime::REF   1713140000                       # Time in different power states
system.mem_ctrls.dram.rank0.pwrStateTime::SREF            0                       # Time in different power states
system.mem_ctrls.dram.rank0.pwrStateTime::PRE_PDN            0                       # Time in different power states
system.mem_ctrls.dram.rank0.pwrStateTime::ACT  40351741750                       # Time in different power states
system.mem_ctrls.dram.rank0.pwrStateTime::ACT_PDN            0                       # Time in different power states
system.mem_ctrls.dram.rank1.actEnergy       315637980                       # Energy for activate commands per rank (pJ)
system.mem_ctrls.dram.rank1.preEnergy       167765565                       # Energy for precharge commands per rank (pJ)
system.mem_ctrls.dram.rank1.readEnergy     1377884340                       # Energy for read commands per rank (pJ)
system.mem_ctrls.dram.rank1.writeEnergy     435348000                       # Energy for write commands per rank (pJ)
system.mem_ctrls.dram.rank1.refreshEnergy 4049862960.000000                       # Energy for refresh commands per rank (pJ)
system.mem_ctrls.dram.rank1.actBackEnergy  18978746790                       # Energy for active background per rank (pJ)
system.mem_ctrls.dram.rank1.preBackEnergy   3719338560                       # Energy for precharge background per rank (pJ)
system.mem_ctrls.dram.rank1.actPowerDownEnergy            0                       # Energy for active power-down per rank (pJ)
system.mem_ctrls.dram.rank1.prePowerDownEnergy            0                       # Energy for precharge power-down per rank (pJ)
system.mem_ctrls.dram.rank1.selfRefreshEnergy            0                       # Energy for self refresh per rank (pJ)
system.mem_ctrls.dram.rank1.totalEnergy   29044584195                       # Total energy per rank (pJ)
system.mem_ctrls.dram.rank1.averagePower   566.106830                       # Core power per rank (mW)
system.mem_ctrls.dram.rank1.totalIdleTime            0                       # Total Idle time Per DRAM Rank
system.mem_ctrls.dram.rank1.pwrStateTime::IDLE   9426704500                       # Time in different power states
system.mem_ctrls.dram.rank1.pwrStateTime::REF   1713140000                       # Time in different power states
system.mem_ctrls.dram.rank1.pwrStateTime::SREF            0                       # Time in different power states
system.mem_ctrls.dram.rank1.pwrStateTime::PRE_PDN            0                       # Time in different power states
system.mem_ctrls.dram.rank1.pwrStateTime::ACT  40165991500                       # Time in different power states
system.mem_ctrls.dram.rank1.pwrStateTime::ACT_PDN            0                       # Time in different power states
system.mem_ctrls.power_state.pwrStateResidencyTicks::UNDEFINED  51305836000                       # Cumulative time (in ticks) in various power states
system.membus.trans_dist::ReadResp             222109                       # Transaction distribution
system.membus.trans_dist::WritebackDirty       165755                       # Transaction distribution
system.membus.trans_dist::CleanEvict           213301                       # Transaction distribution
system.membus.trans_dist::UpgradeReq                1                       # Transaction distribution
system.membus.trans_dist::ReadExReq            165660                       # Transaction distribution
system.membus.trans_dist::ReadExResp           165660                       # Transaction distribution
system.membus.trans_dist::ReadSharedReq        222109                       # Transaction distribution
system.membus.pkt_count_system.l2.mem_side_port::system.mem_ctrls.port      1154595                       # Packet count per connected requestor and responder (bytes)
system.membus.pkt_count_system.l2.mem_side_port::total      1154595                       # Packet count per connected requestor and responder (bytes)
system.membus.pkt_count::total                1154595                       # Packet count per connected requestor and responder (bytes)
system.membus.pkt_size_system.l2.mem_side_port::system.mem_ctrls.port     35425536                       # Cumulative packet size per connected requestor and responder (bytes)
system.membus.pkt_size_system.l2.mem_side_port::total     35425536                       # Cumulative packet size per connected requestor and responder (bytes)
system.membus.pkt_size::total                35425536                       # Cumulative packet size per connected requestor and responder (bytes)
system.membus.snoops                                0                       # Total snoops (count)
system.membus.snoopTraffic                          0                       # Total snoop traffic (bytes)
system.membus.snoop_fanout::samples            387770                       # Request fanout histogram
system.membus.snoop_fanout::mean                    0                       # Request fanout histogram
system.membus.snoop_fanout::stdev                   0                       # Request fanout histogram
system.membus.snoop_fanout::underflows              0      0.00%      0.00% # Request fanout histogram
system.membus.snoop_fanout::0                  387770    100.00%    100.00% # Request fanout histogram
system.membus.snoop_fanout::1                       0      0.00%    100.00% # Request fanout histogram
system.membus.snoop_fanout::overflows               0      0.00%    100.00% # Request fanout histogram
system.membus.snoop_fanout::min_value               0                       # Request fanout histogram
system.membus.snoop_fanout::max_value               0                       # Request fanout histogram
system.membus.snoop_fanout::total              387770                       # Request fanout histogram
system.membus.power_state.pwrStateResidencyTicks::UNDEFINED  51305836000                       # Cumulative time (in ticks) in various power states
system.membus.reqLayer2.occupancy           357461500                       # Layer occupancy (ticks)
system.membus.reqLayer2.utilization               0.7                       # Layer utilization (%)
system.membus.respLayer1.occupancy          484711250                       # Layer occupancy (ticks)
system.membus.respLayer1.utilization              0.9                       # Layer utilization (%)
system.tol2bus.trans_dist::ReadResp            259383                       # Transaction distribution
system.tol2bus.trans_dist::WritebackDirty       338167                       # Transaction distribution
system.tol2bus.trans_dist::WritebackClean         3312                       # Transaction distribution
system.tol2bus.trans_dist::CleanEvict          464957                       # Transaction distribution
system.tol2bus.trans_dist::UpgradeReq               1                       # Transaction distribution
system.tol2bus.trans_dist::UpgradeResp              1                       # Transaction distribution
system.tol2bus.trans_dist::ReadExReq           167830                       # Transaction distribution
system.tol2bus.trans_dist::ReadExResp          167830                       # Transaction distribution
system.tol2bus.trans_dist::ReadCleanReq          3825                       # Transaction distribution
system.tol2bus.trans_dist::ReadSharedReq       255559                       # Transaction distribution
system.tol2bus.pkt_count_system.cpu.icache.mem_side_port::system.l2.cpu_side_port        10960                       # Packet count per connected requestor and responder (bytes)
system.tol2bus.pkt_count_system.cpu.dcache.mem_side_port::system.l2.cpu_side_port      1269655                       # Packet count per connected requestor and responder (bytes)
system.tol2bus.pkt_count::total               1280615                       # Packet count per connected requestor and responder (bytes)
system.tol2bus.pkt_size_system.cpu.icache.mem_side_port::system.l2.cpu_side_port       456640                       # Cumulative packet size per connected requestor and responder (bytes)
system.tol2bus.pkt_size_system.cpu.dcache.mem_side_port::system.l2.cpu_side_port     38131200                       # Cumulative packet size per connected requestor and responder (bytes)
system.tol2bus.pkt_size::total               38587840                       # Cumulative packet size per connected requestor and responder (bytes)
system.tol2bus.snoops                          380250                       # Total snoops (count)
system.tol2bus.snoopTraffic                  10608448                       # Total snoop traffic (bytes)
system.tol2bus.snoop_fanout::samples           807463                       # Request fanout histogram
system.tol2bus.snoop_fanout::mean            0.001541                       # Request fanout histogram
system.tol2bus.snoop_fanout::stdev           0.039221                       # Request fanout histogram
system.tol2bus.snoop_fanout::underflows             0      0.00%      0.00% # Request fanout histogram
system.tol2bus.snoop_fanout::0                 806219     99.85%     99.85% # Request fanout histogram
system.tol2bus.snoop_fanout::1                   1244      0.15%    100.00% # Request fanout histogram
system.tol2bus.snoop_fanout::2                      0      0.00%    100.00% # Request fanout histogram
system.tol2bus.snoop_fanout::3                      0      0.00%    100.00% # Request fanout histogram
system.tol2bus.snoop_fanout::4                      0      0.00%    100.00% # Request fanout histogram
system.tol2bus.snoop_fanout::overflows              0      0.00%    100.00% # Request fanout histogram
system.tol2bus.snoop_fanout::min_value              0                       # Request fanout histogram
system.tol2bus.snoop_fanout::max_value              1                       # Request fanout histogram
system.tol2bus.snoop_fanout::total             807463                       # Request fanout histogram
system.tol2bus.power_state.pwrStateResidencyTicks::UNDEFINED  51305836000                       # Cumulative time (in ticks) in various power states
system.tol2bus.reqLayer0.occupancy          602425500                       # Layer occupancy (ticks)
system.tol2bus.reqLayer0.utilization              1.2                       # Layer utilization (%)
system.tol2bus.respLayer0.occupancy           5739496                       # Layer occupancy (ticks)
system.tol2bus.respLayer0.utilization             0.0                       # Layer utilization (%)
system.tol2bus.respLayer1.occupancy         635083997                       # Layer occupancy (ticks)
system.tol2bus.respLayer1.utilization             1.2                       # Layer utilization (%)
system.voltage_domain.voltage                       1                       # Voltage in Volts

---------- End Simulation Statistics   ----------
