
---------- Begin Simulation Statistics ----------
final_tick                                  105766000                       # Number of ticks from beginning of simulation (restored from checkpoints and never reset)
host_inst_rate                                  42884                       # Simulator instruction rate (inst/s)
host_mem_usage                                2219508                       # Number of bytes of host memory used
host_op_rate                                   258091                       # Simulator op (including micro ops) rate (op/s)
host_seconds                                     0.66                       # Real time elapsed on the host
host_tick_rate                              111357985                       # Simulator tick rate (ticks/s)
sim_freq                                 1000000000000                       # Frequency of simulated ticks
sim_insts                                       28401                       # Number of instructions simulated
sim_ops                                        170995                       # Number of ops (including micro ops) simulated
sim_seconds                                  0.000074                       # Number of seconds simulated
sim_ticks                                    73785000                       # Number of ticks simulated
system.cpu.cc_regfile_reads                    225281                       # number of cc regfile reads
system.cpu.cc_regfile_writes                    40990                       # number of cc regfile writes
system.cpu.committedInsts                       20492                       # Number of Instructions Simulated
system.cpu.committedOps                        155674                       # Number of Ops (including micro ops) Simulated
system.cpu.cpi                               3.600673                       # CPI: Cycles Per Instruction
system.cpu.cpi_total                         3.600673                       # CPI: Total CPI of All Threads
system.cpu.iew.branchMispredicts                    5                       # Number of branch mispredicts detected at execute
system.cpu.iew.exec_branches                     8212                       # Number of branches executed
system.cpu.iew.exec_nop                             0                       # number of nop insts executed
system.cpu.iew.exec_rate                     2.112015                       # Inst execution rate
system.cpu.iew.exec_refs                           29                       # number of memory reference insts executed
system.cpu.iew.exec_stores                         13                       # Number of stores executed
system.cpu.iew.exec_swp                             0                       # number of swp insts executed
system.cpu.iew.iewBlockCycles                      32                       # Number of cycles IEW is blocking
system.cpu.iew.iewDispLoadInsts                    19                       # Number of dispatched load instructions
system.cpu.iew.iewDispNonSpecInsts                  5                       # Number of dispatched non-speculative instructions
system.cpu.iew.iewDispSquashedInsts                 0                       # Number of squashed instructions skipped by dispatch
system.cpu.iew.iewDispStoreInsts                   47                       # Number of dispatched store instructions
system.cpu.iew.iewDispatchedInsts              155980                       # Number of instructions dispatched to IQ
system.cpu.iew.iewExecLoadInsts                    16                       # Number of load instructions executed
system.cpu.iew.iewExecSquashedInsts                 6                       # Number of squashed instructions skipped in execute
system.cpu.iew.iewExecutedInsts                155835                       # Number of executed instructions
system.cpu.iew.iewIQFullEvents                      0                       # Number of times the IQ has become full, causing a stall
system.cpu.iew.iewIdleCycles                        0                       # Number of cycles IEW is idle
system.cpu.iew.iewLSQFullEvents                     0                       # Number of times the LSQ has become full, causing a stall
system.cpu.iew.iewSquashCycles                      5                       # Number of cycles IEW is squashing
system.cpu.iew.iewUnblockCycles                     0                       # Number of cycles IEW is unblocking
system.cpu.iew.memOrderViolationEvents              0                       # Number of memory order violations
system.cpu.iew.predictedNotTakenIncorrect            4                       # Number of branches that were predicted not taken incorrectly
system.cpu.iew.predictedTakenIncorrect              1                       # Number of branches that were predicted taken incorrectly
system.cpu.iew.wb_consumers                    387238                       # num instructions consuming a value
system.cpu.iew.wb_count                        155834                       # cumulative count of insts written-back
system.cpu.iew.wb_fanout                     0.365207                       # average fanout of values written-back
system.cpu.iew.wb_producers                    141422                       # num instructions producing a value
system.cpu.iew.wb_rate                       2.112001                       # insts written-back per cycle
system.cpu.iew.wb_sent                         155835                       # cumulative count of insts sent to commit
system.cpu.int_regfile_reads                   356576                       # number of integer regfile reads
system.cpu.int_regfile_writes                  204943                       # number of integer regfile writes
system.cpu.ipc                               0.277726                       # IPC: Instructions Per Cycle
system.cpu.ipc_total                         0.277726                       # IPC: Total IPC of All Threads
system.cpu.iq.FU_type_0::No_OpClass              4106      2.63%      2.63% # Type of FU issued
system.cpu.iq.FU_type_0::IntAlu                123033     78.95%     81.58% # Type of FU issued
system.cpu.iq.FU_type_0::IntMult                    0      0.00%     81.58% # Type of FU issued
system.cpu.iq.FU_type_0::IntDiv                 28672     18.40%     99.98% # Type of FU issued
system.cpu.iq.FU_type_0::FloatAdd                   0      0.00%     99.98% # Type of FU issued
system.cpu.iq.FU_type_0::FloatCmp                   0      0.00%     99.98% # Type of FU issued
system.cpu.iq.FU_type_0::FloatCvt                   0      0.00%     99.98% # Type of FU issued
system.cpu.iq.FU_type_0::FloatMult                  0      0.00%     99.98% # Type of FU issued
system.cpu.iq.FU_type_0::FloatMultAcc               0      0.00%     99.98% # Type of FU issued
system.cpu.iq.FU_type_0::FloatDiv                   0      0.00%     99.98% # Type of FU issued
system.cpu.iq.FU_type_0::FloatMisc                  0      0.00%     99.98% # Type of FU issued
system.cpu.iq.FU_type_0::FloatSqrt                  0      0.00%     99.98% # Type of FU issued
system.cpu.iq.FU_type_0::SimdAdd                    0      0.00%     99.98% # Type of FU issued
system.cpu.iq.FU_type_0::SimdAddAcc                 0      0.00%     99.98% # Type of FU issued
system.cpu.iq.FU_type_0::SimdAlu                    0      0.00%     99.98% # Type of FU issued
system.cpu.iq.FU_type_0::SimdCmp                    0      0.00%     99.98% # Type of FU issued
system.cpu.iq.FU_type_0::SimdCvt                    0      0.00%     99.98% # Type of FU issued
system.cpu.iq.FU_type_0::SimdMisc                   0      0.00%     99.98% # Type of FU issued
system.cpu.iq.FU_type_0::SimdMult                   0      0.00%     99.98% # Type of FU issued
system.cpu.iq.FU_type_0::SimdMultAcc                0      0.00%     99.98% # Type of FU issued
system.cpu.iq.FU_type_0::SimdShift                  0      0.00%     99.98% # Type of FU issued
system.cpu.iq.FU_type_0::SimdShiftAcc               0      0.00%     99.98% # Type of FU issued
system.cpu.iq.FU_type_0::SimdDiv                    0      0.00%     99.98% # Type of FU issued
system.cpu.iq.FU_type_0::SimdSqrt                   0      0.00%     99.98% # Type of FU issued
system.cpu.iq.FU_type_0::SimdFloatAdd               0      0.00%     99.98% # Type of FU issued
system.cpu.iq.FU_type_0::SimdFloatAlu               0      0.00%     99.98% # Type of FU issued
system.cpu.iq.FU_type_0::SimdFloatCmp               0      0.00%     99.98% # Type of FU issued
system.cpu.iq.FU_type_0::SimdFloatCvt               0      0.00%     99.98% # Type of FU issued
system.cpu.iq.FU_type_0::SimdFloatDiv               0      0.00%     99.98% # Type of FU issued
system.cpu.iq.FU_type_0::SimdFloatMisc              0      0.00%     99.98% # Type of FU issued
system.cpu.iq.FU_type_0::SimdFloatMult              0      0.00%     99.98% # Type of FU issued
system.cpu.iq.FU_type_0::SimdFloatMultAcc            0      0.00%     99.98% # Type of FU issued
system.cpu.iq.FU_type_0::SimdFloatSqrt              0      0.00%     99.98% # Type of FU issued
system.cpu.iq.FU_type_0::SimdReduceAdd              0      0.00%     99.98% # Type of FU issued
system.cpu.iq.FU_type_0::SimdReduceAlu              0      0.00%     99.98% # Type of FU issued
system.cpu.iq.FU_type_0::SimdReduceCmp              0      0.00%     99.98% # Type of FU issued
system.cpu.iq.FU_type_0::SimdFloatReduceAdd            0      0.00%     99.98% # Type of FU issued
system.cpu.iq.FU_type_0::SimdFloatReduceCmp            0      0.00%     99.98% # Type of FU issued
system.cpu.iq.FU_type_0::SimdAes                    0      0.00%     99.98% # Type of FU issued
system.cpu.iq.FU_type_0::SimdAesMix                 0      0.00%     99.98% # Type of FU issued
system.cpu.iq.FU_type_0::SimdSha1Hash               0      0.00%     99.98% # Type of FU issued
system.cpu.iq.FU_type_0::SimdSha1Hash2              0      0.00%     99.98% # Type of FU issued
system.cpu.iq.FU_type_0::SimdSha256Hash             0      0.00%     99.98% # Type of FU issued
system.cpu.iq.FU_type_0::SimdSha256Hash2            0      0.00%     99.98% # Type of FU issued
system.cpu.iq.FU_type_0::SimdShaSigma2              0      0.00%     99.98% # Type of FU issued
system.cpu.iq.FU_type_0::SimdShaSigma3              0      0.00%     99.98% # Type of FU issued
system.cpu.iq.FU_type_0::SimdPredAlu                0      0.00%     99.98% # Type of FU issued
system.cpu.iq.FU_type_0::MemRead                   17      0.01%     99.99% # Type of FU issued
system.cpu.iq.FU_type_0::MemWrite                  18      0.01%    100.00% # Type of FU issued
system.cpu.iq.FU_type_0::FloatMemRead               0      0.00%    100.00% # Type of FU issued
system.cpu.iq.FU_type_0::FloatMemWrite              0      0.00%    100.00% # Type of FU issued
system.cpu.iq.FU_type_0::IprAccess                  0      0.00%    100.00% # Type of FU issued
system.cpu.iq.FU_type_0::InstPrefetch               0      0.00%    100.00% # Type of FU issued
system.cpu.iq.FU_type_0::total                 155846                       # Type of FU issued
system.cpu.iq.fp_alu_accesses                       0                       # Number of floating point alu accesses
system.cpu.iq.fp_inst_queue_reads                   0                       # Number of floating instruction queue reads
system.cpu.iq.fp_inst_queue_wakeup_accesses            0                       # Number of floating instruction queue wakeup accesses
system.cpu.iq.fp_inst_queue_writes                  0                       # Number of floating instruction queue writes
system.cpu.iq.fu_busy_cnt                           3                       # FU busy when requested
system.cpu.iq.fu_busy_rate                   0.000019                       # FU busy rate (busy events/executed inst)
system.cpu.iq.fu_full::No_OpClass                   0      0.00%      0.00% # attempts to use FU when none available
system.cpu.iq.fu_full::IntAlu                       3    100.00%    100.00% # attempts to use FU when none available
system.cpu.iq.fu_full::IntMult                      0      0.00%    100.00% # attempts to use FU when none available
system.cpu.iq.fu_full::IntDiv                       0      0.00%    100.00% # attempts to use FU when none available
system.cpu.iq.fu_full::FloatAdd                     0      0.00%    100.00% # attempts to use FU when none available
system.cpu.iq.fu_full::FloatCmp                     0      0.00%    100.00% # attempts to use FU when none available
system.cpu.iq.fu_full::FloatCvt                     0      0.00%    100.00% # attempts to use FU when none available
system.cpu.iq.fu_full::FloatMult                    0      0.00%    100.00% # attempts to use FU when none available
system.cpu.iq.fu_full::FloatMultAcc                 0      0.00%    100.00% # attempts to use FU when none available
system.cpu.iq.fu_full::FloatDiv                     0      0.00%    100.00% # attempts to use FU when none available
system.cpu.iq.fu_full::FloatMisc                    0      0.00%    100.00% # attempts to use FU when none available
system.cpu.iq.fu_full::FloatSqrt                    0      0.00%    100.00% # attempts to use FU when none available
system.cpu.iq.fu_full::SimdAdd                      0      0.00%    100.00% # attempts to use FU when none available
system.cpu.iq.fu_full::SimdAddAcc                   0      0.00%    100.00% # attempts to use FU when none available
system.cpu.iq.fu_full::SimdAlu                      0      0.00%    100.00% # attempts to use FU when none available
system.cpu.iq.fu_full::SimdCmp                      0      0.00%    100.00% # attempts to use FU when none available
system.cpu.iq.fu_full::SimdCvt                      0      0.00%    100.00% # attempts to use FU when none available
system.cpu.iq.fu_full::SimdMisc                     0      0.00%    100.00% # attempts to use FU when none available
system.cpu.iq.fu_full::SimdMult                     0      0.00%    100.00% # attempts to use FU when none available
system.cpu.iq.fu_full::SimdMultAcc                  0      0.00%    100.00% # attempts to use FU when none available
system.cpu.iq.fu_full::SimdShift                    0      0.00%    100.00% # attempts to use FU when none available
system.cpu.iq.fu_full::SimdShiftAcc                 0      0.00%    100.00% # attempts to use FU when none available
system.cpu.iq.fu_full::SimdDiv                      0      0.00%    100.00% # attempts to use FU when none available
system.cpu.iq.fu_full::SimdSqrt                     0      0.00%    100.00% # attempts to use FU when none available
system.cpu.iq.fu_full::SimdFloatAdd                 0      0.00%    100.00% # attempts to use FU when none available
system.cpu.iq.fu_full::SimdFloatAlu                 0      0.00%    100.00% # attempts to use FU when none available
system.cpu.iq.fu_full::SimdFloatCmp                 0      0.00%    100.00% # attempts to use FU when none available
system.cpu.iq.fu_full::SimdFloatCvt                 0      0.00%    100.00% # attempts to use FU when none available
system.cpu.iq.fu_full::SimdFloatDiv                 0      0.00%    100.00% # attempts to use FU when none available
system.cpu.iq.fu_full::SimdFloatMisc                0      0.00%    100.00% # attempts to use FU when none available
system.cpu.iq.fu_full::SimdFloatMult                0      0.00%    100.00% # attempts to use FU when none available
system.cpu.iq.fu_full::SimdFloatMultAcc             0      0.00%    100.00% # attempts to use FU when none available
system.cpu.iq.fu_full::SimdFloatSqrt                0      0.00%    100.00% # attempts to use FU when none available
system.cpu.iq.fu_full::SimdReduceAdd                0      0.00%    100.00% # attempts to use FU when none available
system.cpu.iq.fu_full::SimdReduceAlu                0      0.00%    100.00% # attempts to use FU when none available
system.cpu.iq.fu_full::SimdReduceCmp                0      0.00%    100.00% # attempts to use FU when none available
system.cpu.iq.fu_full::SimdFloatReduceAdd            0      0.00%    100.00% # attempts to use FU when none available
system.cpu.iq.fu_full::SimdFloatReduceCmp            0      0.00%    100.00% # attempts to use FU when none available
system.cpu.iq.fu_full::SimdAes                      0      0.00%    100.00% # attempts to use FU when none available
system.cpu.iq.fu_full::SimdAesMix                   0      0.00%    100.00% # attempts to use FU when none available
system.cpu.iq.fu_full::SimdSha1Hash                 0      0.00%    100.00% # attempts to use FU when none available
system.cpu.iq.fu_full::SimdSha1Hash2                0      0.00%    100.00% # attempts to use FU when none available
system.cpu.iq.fu_full::SimdSha256Hash               0      0.00%    100.00% # attempts to use FU when none available
system.cpu.iq.fu_full::SimdSha256Hash2              0      0.00%    100.00% # attempts to use FU when none available
system.cpu.iq.fu_full::SimdShaSigma2                0      0.00%    100.00% # attempts to use FU when none available
system.cpu.iq.fu_full::SimdShaSigma3                0      0.00%    100.00% # attempts to use FU when none available
system.cpu.iq.fu_full::SimdPredAlu                  0      0.00%    100.00% # attempts to use FU when none available
system.cpu.iq.fu_full::MemRead                      0      0.00%    100.00% # attempts to use FU when none available
system.cpu.iq.fu_full::MemWrite                     0      0.00%    100.00% # attempts to use FU when none available
system.cpu.iq.fu_full::FloatMemRead                 0      0.00%    100.00% # attempts to use FU when none available
system.cpu.iq.fu_full::FloatMemWrite                0      0.00%    100.00% # attempts to use FU when none available
system.cpu.iq.fu_full::IprAccess                    0      0.00%    100.00% # attempts to use FU when none available
system.cpu.iq.fu_full::InstPrefetch                 0      0.00%    100.00% # attempts to use FU when none available
system.cpu.iq.int_alu_accesses                 151743                       # Number of integer alu accesses
system.cpu.iq.int_inst_queue_reads             385479                       # Number of integer instruction queue reads
system.cpu.iq.int_inst_queue_wakeup_accesses       155834                       # Number of integer instruction queue wakeup accesses
system.cpu.iq.int_inst_queue_writes            156257                       # Number of integer instruction queue writes
system.cpu.iq.iqInstsAdded                     155975                       # Number of instructions added to the IQ (excludes non-spec)
system.cpu.iq.iqInstsIssued                    155846                       # Number of instructions issued
system.cpu.iq.iqNonSpecInstsAdded                   5                       # Number of non-speculative instructions added to the IQ
system.cpu.iq.iqSquashedInstsExamined             277                       # Number of squashed instructions iterated over during squash; mainly for profiling
system.cpu.iq.iqSquashedInstsIssued                 4                       # Number of squashed instructions issued
system.cpu.iq.iqSquashedNonSpecRemoved              4                       # Number of squashed non-spec instructions that were removed
system.cpu.iq.iqSquashedOperandsExamined          443                       # Number of squashed operands that are examined and possibly removed from graph
system.cpu.iq.issued_per_cycle::samples         73785                       # Number of insts issued each cycle
system.cpu.iq.issued_per_cycle::mean         2.112164                       # Number of insts issued each cycle
system.cpu.iq.issued_per_cycle::stdev        1.300358                       # Number of insts issued each cycle
system.cpu.iq.issued_per_cycle::underflows            0      0.00%      0.00% # Number of insts issued each cycle
system.cpu.iq.issued_per_cycle::0                  46      0.06%      0.06% # Number of insts issued each cycle
system.cpu.iq.issued_per_cycle::1               33763     45.76%     45.82% # Number of insts issued each cycle
system.cpu.iq.issued_per_cycle::2               16379     22.20%     68.02% # Number of insts issued each cycle
system.cpu.iq.issued_per_cycle::3               10251     13.89%     81.91% # Number of insts issued each cycle
system.cpu.iq.issued_per_cycle::4                9222     12.50%     94.41% # Number of insts issued each cycle
system.cpu.iq.issued_per_cycle::5                3078      4.17%     98.58% # Number of insts issued each cycle
system.cpu.iq.issued_per_cycle::6                1031      1.40%     99.98% # Number of insts issued each cycle
system.cpu.iq.issued_per_cycle::7                  12      0.02%    100.00% # Number of insts issued each cycle
system.cpu.iq.issued_per_cycle::8                   3      0.00%    100.00% # Number of insts issued each cycle
system.cpu.iq.issued_per_cycle::overflows            0      0.00%    100.00% # Number of insts issued each cycle
system.cpu.iq.issued_per_cycle::min_value            0                       # Number of insts issued each cycle
system.cpu.iq.issued_per_cycle::max_value            8                       # Number of insts issued each cycle
system.cpu.iq.issued_per_cycle::total           73785                       # Number of insts issued each cycle
system.cpu.iq.rate                           2.112164                       # Inst issue rate
system.cpu.iq.vec_alu_accesses                      0                       # Number of vector alu accesses
system.cpu.iq.vec_inst_queue_reads                  0                       # Number of vector instruction queue reads
system.cpu.iq.vec_inst_queue_wakeup_accesses            0                       # Number of vector instruction queue wakeup accesses
system.cpu.iq.vec_inst_queue_writes                 0                       # Number of vector instruction queue writes
system.cpu.memDep0.conflictingLoads                 0                       # Number of conflicting loads.
system.cpu.memDep0.conflictingStores                0                       # Number of conflicting stores.
system.cpu.memDep0.insertedLoads                   19                       # Number of loads inserted to the mem dependence unit.
system.cpu.memDep0.insertedStores                  47                       # Number of stores inserted to the mem dependence unit.
system.cpu.misc_regfile_reads                    8260                       # number of misc regfile reads
system.cpu.numCycles                            73785                       # number of cpu cycles simulated
system.cpu.numWorkItemsCompleted                    0                       # number of work items this cpu completed
system.cpu.numWorkItemsStarted                      0                       # number of work items this cpu started
system.cpu.workload.numSyscalls                     0                       # Number of system calls
system.l1_to_l2.snoop_filter.hit_multi_requests            0                       # Number of requests hitting in the snoop filter with multiple (>1) holders of the requested data.
system.l1_to_l2.snoop_filter.hit_multi_snoops            0                       # Number of snoops hitting in the snoop filter with multiple (>1) holders of the requested data.
system.l1_to_l2.snoop_filter.hit_single_requests            0                       # Number of requests hitting in the snoop filter with a single holder of the requested data.
system.l1_to_l2.snoop_filter.hit_single_snoops            0                       # Number of snoops hitting in the snoop filter with a single holder of the requested data.
system.l1_to_l2.snoop_filter.tot_requests            2                       # Total number of requests made to the snoop filter.
system.l1_to_l2.snoop_filter.tot_snoops             0                       # Total number of snoops made to the snoop filter.
system.membus.snoop_filter.hit_multi_requests            0                       # Number of requests hitting in the snoop filter with multiple (>1) holders of the requested data.
system.membus.snoop_filter.hit_multi_snoops            0                       # Number of snoops hitting in the snoop filter with multiple (>1) holders of the requested data.
system.membus.snoop_filter.hit_single_requests            0                       # Number of requests hitting in the snoop filter with a single holder of the requested data.
system.membus.snoop_filter.hit_single_snoops            0                       # Number of snoops hitting in the snoop filter with a single holder of the requested data.
system.membus.snoop_filter.tot_requests             2                       # Total number of requests made to the snoop filter.
system.membus.snoop_filter.tot_snoops               0                       # Total number of snoops made to the snoop filter.
system.clk_domain.clock                          1000                       # Clock period in ticks
system.clk_domain.voltage_domain.voltage            1                       # Voltage in Volts
system.cpu.branchPred.lookups                    8228                       # Number of BP lookups
system.cpu.branchPred.condPredicted              8207                       # Number of conditional branches predicted
system.cpu.branchPred.condIncorrect                 6                       # Number of conditional branches incorrect
system.cpu.branchPred.BTBLookups                 4106                       # Number of BTB lookups
system.cpu.branchPred.BTBHits                    4103                       # Number of BTB hits
system.cpu.branchPred.BTBHitPct             99.926936                       # BTB Hit Percentage
system.cpu.branchPred.RASUsed                      10                       # Number of times the RAS was used to get a target.
system.cpu.branchPred.RASIncorrect                  0                       # Number of incorrect RAS predictions.
system.cpu.branchPred.indirectLookups               0                       # Number of indirect predictor lookups.
system.cpu.branchPred.indirectHits                  0                       # Number of indirect target hits.
system.cpu.branchPred.indirectMisses                0                       # Number of indirect misses.
system.cpu.branchPred.indirectMispredicted            0                       # Number of mispredicted indirect branches.
system.cpu.branchPred.loop_predictor.correct         8190                       # Number of times the loop predictor is the provider and the prediction is correct
system.cpu.branchPred.loop_predictor.wrong            3                       # Number of times the loop predictor is the provider and the prediction is wrong
system.cpu.branchPred.tage.longestMatchProviderCorrect         4091                       # Number of times TAGE Longest Match is the provider and the prediction is correct
system.cpu.branchPred.tage.altMatchProviderCorrect            0                       # Number of times TAGE Alt Match is the provider and the prediction is correct
system.cpu.branchPred.tage.bimodalAltMatchProviderCorrect            0                       # Number of times TAGE Alt Match is the bimodal and it is the provider and the prediction is correct
system.cpu.branchPred.tage.bimodalProviderCorrect         4096                       # Number of times there are no hits on the TAGE tables and the bimodal prediction is correct
system.cpu.branchPred.tage.longestMatchProviderWrong            2                       # Number of times TAGE Longest Match is the provider and the prediction is wrong
system.cpu.branchPred.tage.altMatchProviderWrong            0                       # Number of times TAGE Alt Match is the provider and the prediction is wrong
system.cpu.branchPred.tage.bimodalAltMatchProviderWrong            0                       # Number of times TAGE Alt Match is the bimodal and it is the provider and the prediction is wrong
system.cpu.branchPred.tage.bimodalProviderWrong            4                       # Number of times there are no hits on the TAGE tables and the bimodal prediction is wrong
system.cpu.branchPred.tage.altMatchProviderWouldHaveHit            2                       # Number of times TAGE Longest Match is the provider, the prediction is wrong and Alt Match prediction was correct
system.cpu.branchPred.tage.longestMatchProviderWouldHaveHit            0                       # Number of times TAGE Alt Match is the provider, the prediction is wrong and Longest Match prediction was correct
system.cpu.branchPred.tage.longestMatchProvider::0            0                       # TAGE provider for longest match
system.cpu.branchPred.tage.longestMatchProvider::1         4092                       # TAGE provider for longest match
system.cpu.branchPred.tage.longestMatchProvider::2            0                       # TAGE provider for longest match
system.cpu.branchPred.tage.longestMatchProvider::3            0                       # TAGE provider for longest match
system.cpu.branchPred.tage.longestMatchProvider::4            0                       # TAGE provider for longest match
system.cpu.branchPred.tage.longestMatchProvider::5            1                       # TAGE provider for longest match
system.cpu.branchPred.tage.longestMatchProvider::6            0                       # TAGE provider for longest match
system.cpu.branchPred.tage.longestMatchProvider::7            0                       # TAGE provider for longest match
system.cpu.branchPred.tage.longestMatchProvider::8            0                       # TAGE provider for longest match
system.cpu.branchPred.tage.longestMatchProvider::9            0                       # TAGE provider for longest match
system.cpu.branchPred.tage.longestMatchProvider::10            0                       # TAGE provider for longest match
system.cpu.branchPred.tage.longestMatchProvider::11            0                       # TAGE provider for longest match
system.cpu.branchPred.tage.longestMatchProvider::12            0                       # TAGE provider for longest match
system.cpu.branchPred.tage.altMatchProvider::0         4093                       # TAGE provider for alt match
system.cpu.branchPred.tage.altMatchProvider::1            0                       # TAGE provider for alt match
system.cpu.branchPred.tage.altMatchProvider::2            0                       # TAGE provider for alt match
system.cpu.branchPred.tage.altMatchProvider::3            0                       # TAGE provider for alt match
system.cpu.branchPred.tage.altMatchProvider::4            0                       # TAGE provider for alt match
system.cpu.branchPred.tage.altMatchProvider::5            0                       # TAGE provider for alt match
system.cpu.branchPred.tage.altMatchProvider::6            0                       # TAGE provider for alt match
system.cpu.branchPred.tage.altMatchProvider::7            0                       # TAGE provider for alt match
system.cpu.branchPred.tage.altMatchProvider::8            0                       # TAGE provider for alt match
system.cpu.branchPred.tage.altMatchProvider::9            0                       # TAGE provider for alt match
system.cpu.branchPred.tage.altMatchProvider::10            0                       # TAGE provider for alt match
system.cpu.branchPred.tage.altMatchProvider::11            0                       # TAGE provider for alt match
system.cpu.branchPred.tage.altMatchProvider::12            0                       # TAGE provider for alt match
system.cpu.commit.commitSquashedInsts             277                       # The number of squashed insts skipped by commit
system.cpu.commit.commitNonSpecStalls               1                       # The number of times commit has been forced to stall to communicate backwards
system.cpu.commit.branchMispredicts                 5                       # The number of times a branch was mispredicted
system.cpu.commit.numCommittedDist::samples        73748                       # Number of insts commited each cycle
system.cpu.commit.numCommittedDist::mean     2.110891                       # Number of insts commited each cycle
system.cpu.commit.numCommittedDist::stdev     2.052655                       # Number of insts commited each cycle
system.cpu.commit.numCommittedDist::underflows            0      0.00%      0.00% # Number of insts commited each cycle
system.cpu.commit.numCommittedDist::0              34      0.05%      0.05% # Number of insts commited each cycle
system.cpu.commit.numCommittedDist::1           53224     72.17%     72.22% # Number of insts commited each cycle
system.cpu.commit.numCommittedDist::2              11      0.01%     72.23% # Number of insts commited each cycle
system.cpu.commit.numCommittedDist::3            8184     11.10%     83.33% # Number of insts commited each cycle
system.cpu.commit.numCommittedDist::4               4      0.01%     83.33% # Number of insts commited each cycle
system.cpu.commit.numCommittedDist::5            4092      5.55%     88.88% # Number of insts commited each cycle
system.cpu.commit.numCommittedDist::6            4096      5.55%     94.44% # Number of insts commited each cycle
system.cpu.commit.numCommittedDist::7               0      0.00%     94.44% # Number of insts commited each cycle
system.cpu.commit.numCommittedDist::8            4103      5.56%    100.00% # Number of insts commited each cycle
system.cpu.commit.numCommittedDist::overflows            0      0.00%    100.00% # Number of insts commited each cycle
system.cpu.commit.numCommittedDist::min_value            0                       # Number of insts commited each cycle
system.cpu.commit.numCommittedDist::max_value            8                       # Number of insts commited each cycle
system.cpu.commit.numCommittedDist::total        73748                       # Number of insts commited each cycle
system.cpu.commit.instsCommitted                20492                       # Number of instructions committed
system.cpu.commit.opsCommitted                 155674                       # Number of ops (including micro ops) committed
system.cpu.commit.memRefs                           2                       # Number of memory references committed
system.cpu.commit.loads                             1                       # Number of loads committed
system.cpu.commit.amos                              0                       # Number of atomic instructions committed
system.cpu.commit.membars                           0                       # Number of memory barriers committed
system.cpu.commit.branches                       8196                       # Number of branches committed
system.cpu.commit.vector                            0                       # Number of committed Vector instructions.
system.cpu.commit.floating                          0                       # Number of committed floating point instructions.
system.cpu.commit.integer                      151577                       # Number of committed integer instructions.
system.cpu.commit.functionCalls                     1                       # Number of function calls committed.
system.cpu.commit.committedInstType_0::No_OpClass         4097      2.63%      2.63% # Class of committed instruction
system.cpu.commit.committedInstType_0::IntAlu       122902     78.95%     81.58% # Class of committed instruction
system.cpu.commit.committedInstType_0::IntMult            1      0.00%     81.58% # Class of committed instruction
system.cpu.commit.committedInstType_0::IntDiv        28672     18.42%    100.00% # Class of committed instruction
system.cpu.commit.committedInstType_0::FloatAdd            0      0.00%    100.00% # Class of committed instruction
system.cpu.commit.committedInstType_0::FloatCmp            0      0.00%    100.00% # Class of committed instruction
system.cpu.commit.committedInstType_0::FloatCvt            0      0.00%    100.00% # Class of committed instruction
system.cpu.commit.committedInstType_0::FloatMult            0      0.00%    100.00% # Class of committed instruction
system.cpu.commit.committedInstType_0::FloatMultAcc            0      0.00%    100.00% # Class of committed instruction
system.cpu.commit.committedInstType_0::FloatDiv            0      0.00%    100.00% # Class of committed instruction
system.cpu.commit.committedInstType_0::FloatMisc            0      0.00%    100.00% # Class of committed instruction
system.cpu.commit.committedInstType_0::FloatSqrt            0      0.00%    100.00% # Class of committed instruction
system.cpu.commit.committedInstType_0::SimdAdd            0      0.00%    100.00% # Class of committed instruction
system.cpu.commit.committedInstType_0::SimdAddAcc            0      0.00%    100.00% # Class of committed instruction
system.cpu.commit.committedInstType_0::SimdAlu            0      0.00%    100.00% # Class of committed instruction
system.cpu.commit.committedInstType_0::SimdCmp            0      0.00%    100.00% # Class of committed instruction
system.cpu.commit.committedInstType_0::SimdCvt            0      0.00%    100.00% # Class of committed instruction
system.cpu.commit.committedInstType_0::SimdMisc            0      0.00%    100.00% # Class of committed instruction
system.cpu.commit.committedInstType_0::SimdMult            0      0.00%    100.00% # Class of committed instruction
system.cpu.commit.committedInstType_0::SimdMultAcc            0      0.00%    100.00% # Class of committed instruction
system.cpu.commit.committedInstType_0::SimdShift            0      0.00%    100.00% # Class of committed instruction
system.cpu.commit.committedInstType_0::SimdShiftAcc            0      0.00%    100.00% # Class of committed instruction
system.cpu.commit.committedInstType_0::SimdDiv            0      0.00%    100.00% # Class of committed instruction
system.cpu.commit.committedInstType_0::SimdSqrt            0      0.00%    100.00% # Class of committed instruction
system.cpu.commit.committedInstType_0::SimdFloatAdd            0      0.00%    100.00% # Class of committed instruction
system.cpu.commit.committedInstType_0::SimdFloatAlu            0      0.00%    100.00% # Class of committed instruction
system.cpu.commit.committedInstType_0::SimdFloatCmp            0      0.00%    100.00% # Class of committed instruction
system.cpu.commit.committedInstType_0::SimdFloatCvt            0      0.00%    100.00% # Class of committed instruction
system.cpu.commit.committedInstType_0::SimdFloatDiv            0      0.00%    100.00% # Class of committed instruction
system.cpu.commit.committedInstType_0::SimdFloatMisc            0      0.00%    100.00% # Class of committed instruction
system.cpu.commit.committedInstType_0::SimdFloatMult            0      0.00%    100.00% # Class of committed instruction
system.cpu.commit.committedInstType_0::SimdFloatMultAcc            0      0.00%    100.00% # Class of committed instruction
system.cpu.commit.committedInstType_0::SimdFloatSqrt            0      0.00%    100.00% # Class of committed instruction
system.cpu.commit.committedInstType_0::SimdReduceAdd            0      0.00%    100.00% # Class of committed instruction
system.cpu.commit.committedInstType_0::SimdReduceAlu            0      0.00%    100.00% # Class of committed instruction
system.cpu.commit.committedInstType_0::SimdReduceCmp            0      0.00%    100.00% # Class of committed instruction
system.cpu.commit.committedInstType_0::SimdFloatReduceAdd            0      0.00%    100.00% # Class of committed instruction
system.cpu.commit.committedInstType_0::SimdFloatReduceCmp            0      0.00%    100.00% # Class of committed instruction
system.cpu.commit.committedInstType_0::SimdAes            0      0.00%    100.00% # Class of committed instruction
system.cpu.commit.committedInstType_0::SimdAesMix            0      0.00%    100.00% # Class of committed instruction
system.cpu.commit.committedInstType_0::SimdSha1Hash            0      0.00%    100.00% # Class of committed instruction
system.cpu.commit.committedInstType_0::SimdSha1Hash2            0      0.00%    100.00% # Class of committed instruction
system.cpu.commit.committedInstType_0::SimdSha256Hash            0      0.00%    100.00% # Class of committed instruction
system.cpu.commit.committedInstType_0::SimdSha256Hash2            0      0.00%    100.00% # Class of committed instruction
system.cpu.commit.committedInstType_0::SimdShaSigma2            0      0.00%    100.00% # Class of committed instruction
system.cpu.commit.committedInstType_0::SimdShaSigma3            0      0.00%    100.00% # Class of committed instruction
system.cpu.commit.committedInstType_0::SimdPredAlu            0      0.00%    100.00% # Class of committed instruction
system.cpu.commit.committedInstType_0::MemRead            1      0.00%    100.00% # Class of committed instruction
system.cpu.commit.committedInstType_0::MemWrite            1      0.00%    100.00% # Class of committed instruction
system.cpu.commit.committedInstType_0::FloatMemRead            0      0.00%    100.00% # Class of committed instruction
system.cpu.commit.committedInstType_0::FloatMemWrite            0      0.00%    100.00% # Class of committed instruction
system.cpu.commit.committedInstType_0::IprAccess            0      0.00%    100.00% # Class of committed instruction
system.cpu.commit.committedInstType_0::InstPrefetch            0      0.00%    100.00% # Class of committed instruction
system.cpu.commit.committedInstType_0::total       155674                       # Class of committed instruction
system.cpu.commit.commitEligibleSamples          4103                       # number cycles where commit BW limit reached
system.cpu.decode.idleCycles                     7192                       # Number of cycles decode is idle
system.cpu.decode.blockedCycles                 47083                       # Number of cycles decode is blocked
system.cpu.decode.runCycles                        64                       # Number of cycles decode is running
system.cpu.decode.unblockCycles                 19441                       # Number of cycles decode is unblocking
system.cpu.decode.squashCycles                      5                       # Number of cycles decode is squashing
system.cpu.decode.branchResolved                 4103                       # Number of times decode resolved a  branch
system.cpu.decode.branchMispred                     1                       # Number of times decode detected a branch misprediction
system.cpu.decode.decodedInsts                 155999                       # Number of instructions handled by decode
system.cpu.decode.squashedInsts                     8                       # Number of squashed instructions handled by decode
system.cpu.dtb.rdAccesses                          16                       # TLB accesses on read requests
system.cpu.dtb.wrAccesses                          13                       # TLB accesses on write requests
system.cpu.dtb.rdMisses                             0                       # TLB misses on read requests
system.cpu.dtb.wrMisses                             0                       # TLB misses on write requests
system.cpu.dtb.walker.power_state.pwrStateResidencyTicks::UNDEFINED    105766000                       # Cumulative time (in ticks) in various power states
system.cpu.fetch.icacheStallCycles                 29                       # Number of cycles fetch is stalled on an Icache miss
system.cpu.fetch.insts                          20659                       # Number of instructions fetch has processed
system.cpu.fetch.branches                        8228                       # Number of branches that fetch encountered
system.cpu.fetch.predictedBranches               4113                       # Number of branches that fetch has predicted taken
system.cpu.fetch.cycles                         73750                       # Number of cycles fetch has run and was not squashing or blocked
system.cpu.fetch.squashCycles                      12                       # Number of cycles fetch has spent squashing
system.cpu.fetch.cacheLines                        37                       # Number of cache lines fetched
system.cpu.fetch.icacheSquashes                     4                       # Number of outstanding Icache misses that were squashed
system.cpu.fetch.nisnDist::samples              73785                       # Number of instructions fetched each cycle (Total)
system.cpu.fetch.nisnDist::mean              2.115254                       # Number of instructions fetched each cycle (Total)
system.cpu.fetch.nisnDist::stdev             3.366637                       # Number of instructions fetched each cycle (Total)
system.cpu.fetch.nisnDist::underflows               0      0.00%      0.00% # Number of instructions fetched each cycle (Total)
system.cpu.fetch.nisnDist::0                    51191     69.38%     69.38% # Number of instructions fetched each cycle (Total)
system.cpu.fetch.nisnDist::1                       10      0.01%     69.39% # Number of instructions fetched each cycle (Total)
system.cpu.fetch.nisnDist::2                     2046      2.77%     72.17% # Number of instructions fetched each cycle (Total)
system.cpu.fetch.nisnDist::3                        2      0.00%     72.17% # Number of instructions fetched each cycle (Total)
system.cpu.fetch.nisnDist::4                     2052      2.78%     74.95% # Number of instructions fetched each cycle (Total)
system.cpu.fetch.nisnDist::5                        1      0.00%     74.95% # Number of instructions fetched each cycle (Total)
system.cpu.fetch.nisnDist::6                     2053      2.78%     77.73% # Number of instructions fetched each cycle (Total)
system.cpu.fetch.nisnDist::7                        5      0.01%     77.74% # Number of instructions fetched each cycle (Total)
system.cpu.fetch.nisnDist::8                    16425     22.26%    100.00% # Number of instructions fetched each cycle (Total)
system.cpu.fetch.nisnDist::overflows                0      0.00%    100.00% # Number of instructions fetched each cycle (Total)
system.cpu.fetch.nisnDist::min_value                0                       # Number of instructions fetched each cycle (Total)
system.cpu.fetch.nisnDist::max_value                8                       # Number of instructions fetched each cycle (Total)
system.cpu.fetch.nisnDist::total                73785                       # Number of instructions fetched each cycle (Total)
system.cpu.fetch.branchRate                  0.111513                       # Number of branch fetches per cycle
system.cpu.fetch.rate                        0.279989                       # Number of inst fetches per cycle
system.cpu.interrupts.clk_domain.clock          16000                       # Clock period in ticks
system.cpu.itb.rdAccesses                           0                       # TLB accesses on read requests
system.cpu.itb.wrAccesses                          37                       # TLB accesses on write requests
system.cpu.itb.rdMisses                             0                       # TLB misses on read requests
system.cpu.itb.wrMisses                             0                       # TLB misses on write requests
system.cpu.itb.walker.power_state.pwrStateResidencyTicks::UNDEFINED    105766000                       # Cumulative time (in ticks) in various power states
system.cpu.l1d.demand_hits::.cpu.data              16                       # number of demand (read+write) hits
system.cpu.l1d.demand_hits::total                  16                       # number of demand (read+write) hits
system.cpu.l1d.overall_hits::.cpu.data             16                       # number of overall hits
system.cpu.l1d.overall_hits::total                 16                       # number of overall hits
system.cpu.l1d.demand_accesses::.cpu.data           16                       # number of demand (read+write) accesses
system.cpu.l1d.demand_accesses::total              16                       # number of demand (read+write) accesses
system.cpu.l1d.overall_accesses::.cpu.data           16                       # number of overall (read+write) accesses
system.cpu.l1d.overall_accesses::total             16                       # number of overall (read+write) accesses
system.cpu.l1d.blocked_cycles::no_mshrs             0                       # number of cycles access was blocked
system.cpu.l1d.blocked_cycles::no_targets            0                       # number of cycles access was blocked
system.cpu.l1d.blocked::no_mshrs                    0                       # number of cycles access was blocked
system.cpu.l1d.blocked::no_targets                  0                       # number of cycles access was blocked
system.cpu.l1d.avg_blocked_cycles::no_mshrs          nan                       # average number of cycles each access was blocked
system.cpu.l1d.avg_blocked_cycles::no_targets          nan                       # average number of cycles each access was blocked
system.cpu.l1d.replacements                         0                       # number of replacements
system.cpu.l1d.ReadReq_hits::.cpu.data             15                       # number of ReadReq hits
system.cpu.l1d.ReadReq_hits::total                 15                       # number of ReadReq hits
system.cpu.l1d.ReadReq_accesses::.cpu.data           15                       # number of ReadReq accesses(hits+misses)
system.cpu.l1d.ReadReq_accesses::total             15                       # number of ReadReq accesses(hits+misses)
system.cpu.l1d.WriteReq_hits::.cpu.data             1                       # number of WriteReq hits
system.cpu.l1d.WriteReq_hits::total                 1                       # number of WriteReq hits
system.cpu.l1d.WriteReq_accesses::.cpu.data            1                       # number of WriteReq accesses(hits+misses)
system.cpu.l1d.WriteReq_accesses::total             1                       # number of WriteReq accesses(hits+misses)
system.cpu.l1d.power_state.pwrStateResidencyTicks::UNDEFINED    105766000                       # Cumulative time (in ticks) in various power states
system.cpu.l1d.tags.tagsinuse                     219                       # Cycle average of tags in use
system.cpu.l1d.tags.total_refs                      0                       # Total number of references to valid blocks.
system.cpu.l1d.tags.sampled_refs                    0                       # Sample count of references to valid blocks.
system.cpu.l1d.tags.avg_refs                      nan                       # Average number of references to valid blocks.
system.cpu.l1d.tags.warmup_cycle                    0                       # Cycle when the warmup percentage was hit.
system.cpu.l1d.tags.occ_blocks::.cpu.data          219                       # Average occupied blocks per requestor
system.cpu.l1d.tags.occ_percent::.cpu.data     0.427734                       # Average percentage of cache occupancy
system.cpu.l1d.tags.occ_percent::total       0.427734                       # Average percentage of cache occupancy
system.cpu.l1d.tags.occ_task_id_blocks::1024          219                       # Occupied blocks per task id
system.cpu.l1d.tags.age_task_id_blocks_1024::1          176                       # Occupied blocks per task id
system.cpu.l1d.tags.age_task_id_blocks_1024::2           43                       # Occupied blocks per task id
system.cpu.l1d.tags.occ_task_id_percent::1024     0.427734                       # Percentage of cache occupancy per task id
system.cpu.l1d.tags.tag_accesses                  128                       # Number of tag accesses
system.cpu.l1d.tags.data_accesses                 128                       # Number of data accesses
system.cpu.l1d.tags.power_state.pwrStateResidencyTicks::UNDEFINED    105766000                       # Cumulative time (in ticks) in various power states
system.cpu.l1i.demand_hits::.cpu.inst              32                       # number of demand (read+write) hits
system.cpu.l1i.demand_hits::total                  32                       # number of demand (read+write) hits
system.cpu.l1i.overall_hits::.cpu.inst             32                       # number of overall hits
system.cpu.l1i.overall_hits::total                 32                       # number of overall hits
system.cpu.l1i.demand_misses::.cpu.inst             5                       # number of demand (read+write) misses
system.cpu.l1i.demand_misses::total                 5                       # number of demand (read+write) misses
system.cpu.l1i.overall_misses::.cpu.inst            5                       # number of overall misses
system.cpu.l1i.overall_misses::total                5                       # number of overall misses
system.cpu.l1i.demand_miss_latency::.cpu.inst       180000                       # number of demand (read+write) miss cycles
system.cpu.l1i.demand_miss_latency::total       180000                       # number of demand (read+write) miss cycles
system.cpu.l1i.overall_miss_latency::.cpu.inst       180000                       # number of overall miss cycles
system.cpu.l1i.overall_miss_latency::total       180000                       # number of overall miss cycles
system.cpu.l1i.demand_accesses::.cpu.inst           37                       # number of demand (read+write) accesses
system.cpu.l1i.demand_accesses::total              37                       # number of demand (read+write) accesses
system.cpu.l1i.overall_accesses::.cpu.inst           37                       # number of overall (read+write) accesses
system.cpu.l1i.overall_accesses::total             37                       # number of overall (read+write) accesses
system.cpu.l1i.demand_miss_rate::.cpu.inst     0.135135                       # miss rate for demand accesses
system.cpu.l1i.demand_miss_rate::total       0.135135                       # miss rate for demand accesses
system.cpu.l1i.overall_miss_rate::.cpu.inst     0.135135                       # miss rate for overall accesses
system.cpu.l1i.overall_miss_rate::total      0.135135                       # miss rate for overall accesses
system.cpu.l1i.demand_avg_miss_latency::.cpu.inst        36000                       # average overall miss latency
system.cpu.l1i.demand_avg_miss_latency::total        36000                       # average overall miss latency
system.cpu.l1i.overall_avg_miss_latency::.cpu.inst        36000                       # average overall miss latency
system.cpu.l1i.overall_avg_miss_latency::total        36000                       # average overall miss latency
system.cpu.l1i.blocked_cycles::no_mshrs             0                       # number of cycles access was blocked
system.cpu.l1i.blocked_cycles::no_targets            0                       # number of cycles access was blocked
system.cpu.l1i.blocked::no_mshrs                    0                       # number of cycles access was blocked
system.cpu.l1i.blocked::no_targets                  0                       # number of cycles access was blocked
system.cpu.l1i.avg_blocked_cycles::no_mshrs          nan                       # average number of cycles each access was blocked
system.cpu.l1i.avg_blocked_cycles::no_targets          nan                       # average number of cycles each access was blocked
system.cpu.l1i.demand_mshr_hits::.cpu.inst            2                       # number of demand (read+write) MSHR hits
system.cpu.l1i.demand_mshr_hits::total              2                       # number of demand (read+write) MSHR hits
system.cpu.l1i.overall_mshr_hits::.cpu.inst            2                       # number of overall MSHR hits
system.cpu.l1i.overall_mshr_hits::total             2                       # number of overall MSHR hits
system.cpu.l1i.demand_mshr_misses::.cpu.inst            3                       # number of demand (read+write) MSHR misses
system.cpu.l1i.demand_mshr_misses::total            3                       # number of demand (read+write) MSHR misses
system.cpu.l1i.overall_mshr_misses::.cpu.inst            3                       # number of overall MSHR misses
system.cpu.l1i.overall_mshr_misses::total            3                       # number of overall MSHR misses
system.cpu.l1i.demand_mshr_miss_latency::.cpu.inst       124000                       # number of demand (read+write) MSHR miss cycles
system.cpu.l1i.demand_mshr_miss_latency::total       124000                       # number of demand (read+write) MSHR miss cycles
system.cpu.l1i.overall_mshr_miss_latency::.cpu.inst       124000                       # number of overall MSHR miss cycles
system.cpu.l1i.overall_mshr_miss_latency::total       124000                       # number of overall MSHR miss cycles
system.cpu.l1i.demand_mshr_miss_rate::.cpu.inst     0.081081                       # mshr miss rate for demand accesses
system.cpu.l1i.demand_mshr_miss_rate::total     0.081081                       # mshr miss rate for demand accesses
system.cpu.l1i.overall_mshr_miss_rate::.cpu.inst     0.081081                       # mshr miss rate for overall accesses
system.cpu.l1i.overall_mshr_miss_rate::total     0.081081                       # mshr miss rate for overall accesses
system.cpu.l1i.demand_avg_mshr_miss_latency::.cpu.inst 41333.333333                       # average overall mshr miss latency
system.cpu.l1i.demand_avg_mshr_miss_latency::total 41333.333333                       # average overall mshr miss latency
system.cpu.l1i.overall_avg_mshr_miss_latency::.cpu.inst 41333.333333                       # average overall mshr miss latency
system.cpu.l1i.overall_avg_mshr_miss_latency::total 41333.333333                       # average overall mshr miss latency
system.cpu.l1i.replacements                         0                       # number of replacements
system.cpu.l1i.ReadReq_hits::.cpu.inst             32                       # number of ReadReq hits
system.cpu.l1i.ReadReq_hits::total                 32                       # number of ReadReq hits
system.cpu.l1i.ReadReq_misses::.cpu.inst            5                       # number of ReadReq misses
system.cpu.l1i.ReadReq_misses::total                5                       # number of ReadReq misses
system.cpu.l1i.ReadReq_miss_latency::.cpu.inst       180000                       # number of ReadReq miss cycles
system.cpu.l1i.ReadReq_miss_latency::total       180000                       # number of ReadReq miss cycles
system.cpu.l1i.ReadReq_accesses::.cpu.inst           37                       # number of ReadReq accesses(hits+misses)
system.cpu.l1i.ReadReq_accesses::total             37                       # number of ReadReq accesses(hits+misses)
system.cpu.l1i.ReadReq_miss_rate::.cpu.inst     0.135135                       # miss rate for ReadReq accesses
system.cpu.l1i.ReadReq_miss_rate::total      0.135135                       # miss rate for ReadReq accesses
system.cpu.l1i.ReadReq_avg_miss_latency::.cpu.inst        36000                       # average ReadReq miss latency
system.cpu.l1i.ReadReq_avg_miss_latency::total        36000                       # average ReadReq miss latency
system.cpu.l1i.ReadReq_mshr_hits::.cpu.inst            2                       # number of ReadReq MSHR hits
system.cpu.l1i.ReadReq_mshr_hits::total             2                       # number of ReadReq MSHR hits
system.cpu.l1i.ReadReq_mshr_misses::.cpu.inst            3                       # number of ReadReq MSHR misses
system.cpu.l1i.ReadReq_mshr_misses::total            3                       # number of ReadReq MSHR misses
system.cpu.l1i.ReadReq_mshr_miss_latency::.cpu.inst       124000                       # number of ReadReq MSHR miss cycles
system.cpu.l1i.ReadReq_mshr_miss_latency::total       124000                       # number of ReadReq MSHR miss cycles
system.cpu.l1i.ReadReq_mshr_miss_rate::.cpu.inst     0.081081                       # mshr miss rate for ReadReq accesses
system.cpu.l1i.ReadReq_mshr_miss_rate::total     0.081081                       # mshr miss rate for ReadReq accesses
system.cpu.l1i.ReadReq_avg_mshr_miss_latency::.cpu.inst 41333.333333                       # average ReadReq mshr miss latency
system.cpu.l1i.ReadReq_avg_mshr_miss_latency::total 41333.333333                       # average ReadReq mshr miss latency
system.cpu.l1i.power_state.pwrStateResidencyTicks::UNDEFINED    105766000                       # Cumulative time (in ticks) in various power states
system.cpu.l1i.tags.tagsinuse              408.996910                       # Cycle average of tags in use
system.cpu.l1i.tags.total_refs                      0                       # Total number of references to valid blocks.
system.cpu.l1i.tags.sampled_refs                    0                       # Sample count of references to valid blocks.
system.cpu.l1i.tags.avg_refs                      nan                       # Average number of references to valid blocks.
system.cpu.l1i.tags.warmup_cycle                    0                       # Cycle when the warmup percentage was hit.
system.cpu.l1i.tags.occ_blocks::.cpu.inst   408.996910                       # Average occupied blocks per requestor
system.cpu.l1i.tags.occ_percent::.cpu.inst     0.798822                       # Average percentage of cache occupancy
system.cpu.l1i.tags.occ_percent::total       0.798822                       # Average percentage of cache occupancy
system.cpu.l1i.tags.occ_task_id_blocks::1024          409                       # Occupied blocks per task id
system.cpu.l1i.tags.age_task_id_blocks_1024::1          346                       # Occupied blocks per task id
system.cpu.l1i.tags.age_task_id_blocks_1024::2           63                       # Occupied blocks per task id
system.cpu.l1i.tags.occ_task_id_percent::1024     0.798828                       # Percentage of cache occupancy per task id
system.cpu.l1i.tags.tag_accesses                  298                       # Number of tag accesses
system.cpu.l1i.tags.data_accesses                 298                       # Number of data accesses
system.cpu.l1i.tags.power_state.pwrStateResidencyTicks::UNDEFINED    105766000                       # Cumulative time (in ticks) in various power states
system.cpu.lsq0.forwLoads                           1                       # Number of loads that had data forwarded from stores
system.cpu.lsq0.squashedLoads                      15                       # Number of loads squashed
system.cpu.lsq0.ignoredResponses                    0                       # Number of memory responses ignored because the instruction is squashed
system.cpu.lsq0.memOrderViolation                   0                       # Number of memory ordering violations
system.cpu.lsq0.squashedStores                     37                       # Number of stores squashed
system.cpu.lsq0.rescheduledLoads                    0                       # Number of loads that were rescheduled
system.cpu.lsq0.blockedByCache                      0                       # Number of times an access to memory failed due to the cache being blocked
system.cpu.power_state.pwrStateResidencyTicks::ON    105766000                       # Cumulative time (in ticks) in various power states
system.cpu.rename.squashCycles                      5                       # Number of cycles rename is squashing
system.cpu.rename.idleCycles                    12309                       # Number of cycles rename is idle
system.cpu.rename.blockCycles                      32                       # Number of cycles rename is blocking
system.cpu.rename.serializeStallCycles              0                       # count of cycles rename stalledfor serializing inst
system.cpu.rename.runCycles                     14387                       # Number of cycles rename is running
system.cpu.rename.unblockCycles                 47052                       # Number of cycles rename is unblocking
system.cpu.rename.renamedInsts                 155998                       # Number of instructions processed by rename
system.cpu.rename.IQFullEvents                  46027                       # Number of times rename has blocked due to IQ full
system.cpu.rename.renamedOperands              246109                       # Number of destination operands rename has renamed
system.cpu.rename.lookups                      590681                       # Number of register rename lookups that rename has made
system.cpu.rename.intLookups                   356935                       # Number of integer rename lookups
system.cpu.rename.committedMaps                245785                       # Number of HB maps that are committed
system.cpu.rename.undoneMaps                      296                       # Number of HB maps that are undone due to squashing
system.cpu.rename.serializing                       0                       # count of serializing insts renamed
system.cpu.rename.tempSerializing                   0                       # count of temporary serializing insts renamed
system.cpu.rename.skidInsts                     86944                       # count of insts added to the skid buffer
system.cpu.rob.reads                           225596                       # The number of ROB reads
system.cpu.rob.writes                          311976                       # The number of ROB writes
system.cpu.thread_0.numInsts                    20492                       # Number of Instructions committed
system.cpu.thread_0.numOps                     155674                       # Number of Ops committed
system.cpu.thread_0.numMemRefs                      0                       # Number of Memory References
system.l1_to_l2.trans_dist::ReadResp                2                       # Transaction distribution
system.l1_to_l2.trans_dist::ReadSharedReq            2                       # Transaction distribution
system.l1_to_l2.pkt_count_system.cpu.l1i.mem_side_port::system.l2cache.cpu_side_port            4                       # Packet count per connected requestor and responder (bytes)
system.l1_to_l2.pkt_count::total                    4                       # Packet count per connected requestor and responder (bytes)
system.l1_to_l2.pkt_size_system.cpu.l1i.mem_side_port::system.l2cache.cpu_side_port          128                       # Cumulative packet size per connected requestor and responder (bytes)
system.l1_to_l2.pkt_size::total                   128                       # Cumulative packet size per connected requestor and responder (bytes)
system.l1_to_l2.snoops                              0                       # Total snoops (count)
system.l1_to_l2.snoopTraffic                        0                       # Total snoop traffic (bytes)
system.l1_to_l2.snoop_fanout::samples               2                       # Request fanout histogram
system.l1_to_l2.snoop_fanout::mean                  0                       # Request fanout histogram
system.l1_to_l2.snoop_fanout::stdev                 0                       # Request fanout histogram
system.l1_to_l2.snoop_fanout::underflows            0      0.00%      0.00% # Request fanout histogram
system.l1_to_l2.snoop_fanout::0                     2    100.00%    100.00% # Request fanout histogram
system.l1_to_l2.snoop_fanout::1                     0      0.00%    100.00% # Request fanout histogram
system.l1_to_l2.snoop_fanout::2                     0      0.00%    100.00% # Request fanout histogram
system.l1_to_l2.snoop_fanout::overflows             0      0.00%    100.00% # Request fanout histogram
system.l1_to_l2.snoop_fanout::min_value             0                       # Request fanout histogram
system.l1_to_l2.snoop_fanout::max_value             0                       # Request fanout histogram
system.l1_to_l2.snoop_fanout::total                 2                       # Request fanout histogram
system.l1_to_l2.power_state.pwrStateResidencyTicks::UNDEFINED    105766000                       # Cumulative time (in ticks) in various power states
system.l1_to_l2.reqLayer0.occupancy              2000                       # Layer occupancy (ticks)
system.l1_to_l2.reqLayer0.utilization             0.0                       # Layer utilization (%)
system.l1_to_l2.respLayer1.occupancy             4000                       # Layer occupancy (ticks)
system.l1_to_l2.respLayer1.utilization            0.0                       # Layer utilization (%)
system.l2cache.demand_misses::.cpu.inst             2                       # number of demand (read+write) misses
system.l2cache.demand_misses::total                 2                       # number of demand (read+write) misses
system.l2cache.overall_misses::.cpu.inst            2                       # number of overall misses
system.l2cache.overall_misses::total                2                       # number of overall misses
system.l2cache.demand_miss_latency::.cpu.inst       120000                       # number of demand (read+write) miss cycles
system.l2cache.demand_miss_latency::total       120000                       # number of demand (read+write) miss cycles
system.l2cache.overall_miss_latency::.cpu.inst       120000                       # number of overall miss cycles
system.l2cache.overall_miss_latency::total       120000                       # number of overall miss cycles
system.l2cache.demand_accesses::.cpu.inst            2                       # number of demand (read+write) accesses
system.l2cache.demand_accesses::total               2                       # number of demand (read+write) accesses
system.l2cache.overall_accesses::.cpu.inst            2                       # number of overall (read+write) accesses
system.l2cache.overall_accesses::total              2                       # number of overall (read+write) accesses
system.l2cache.demand_miss_rate::.cpu.inst            1                       # miss rate for demand accesses
system.l2cache.demand_miss_rate::total              1                       # miss rate for demand accesses
system.l2cache.overall_miss_rate::.cpu.inst            1                       # miss rate for overall accesses
system.l2cache.overall_miss_rate::total             1                       # miss rate for overall accesses
system.l2cache.demand_avg_miss_latency::.cpu.inst        60000                       # average overall miss latency
system.l2cache.demand_avg_miss_latency::total        60000                       # average overall miss latency
system.l2cache.overall_avg_miss_latency::.cpu.inst        60000                       # average overall miss latency
system.l2cache.overall_avg_miss_latency::total        60000                       # average overall miss latency
system.l2cache.blocked_cycles::no_mshrs             0                       # number of cycles access was blocked
system.l2cache.blocked_cycles::no_targets            0                       # number of cycles access was blocked
system.l2cache.blocked::no_mshrs                    0                       # number of cycles access was blocked
system.l2cache.blocked::no_targets                  0                       # number of cycles access was blocked
system.l2cache.avg_blocked_cycles::no_mshrs          nan                       # average number of cycles each access was blocked
system.l2cache.avg_blocked_cycles::no_targets          nan                       # average number of cycles each access was blocked
system.l2cache.demand_mshr_misses::.cpu.inst            2                       # number of demand (read+write) MSHR misses
system.l2cache.demand_mshr_misses::total            2                       # number of demand (read+write) MSHR misses
system.l2cache.overall_mshr_misses::.cpu.inst            2                       # number of overall MSHR misses
system.l2cache.overall_mshr_misses::total            2                       # number of overall MSHR misses
system.l2cache.demand_mshr_miss_latency::.cpu.inst       118000                       # number of demand (read+write) MSHR miss cycles
system.l2cache.demand_mshr_miss_latency::total       118000                       # number of demand (read+write) MSHR miss cycles
system.l2cache.overall_mshr_miss_latency::.cpu.inst       118000                       # number of overall MSHR miss cycles
system.l2cache.overall_mshr_miss_latency::total       118000                       # number of overall MSHR miss cycles
system.l2cache.demand_mshr_miss_rate::.cpu.inst            1                       # mshr miss rate for demand accesses
system.l2cache.demand_mshr_miss_rate::total            1                       # mshr miss rate for demand accesses
system.l2cache.overall_mshr_miss_rate::.cpu.inst            1                       # mshr miss rate for overall accesses
system.l2cache.overall_mshr_miss_rate::total            1                       # mshr miss rate for overall accesses
system.l2cache.demand_avg_mshr_miss_latency::.cpu.inst        59000                       # average overall mshr miss latency
system.l2cache.demand_avg_mshr_miss_latency::total        59000                       # average overall mshr miss latency
system.l2cache.overall_avg_mshr_miss_latency::.cpu.inst        59000                       # average overall mshr miss latency
system.l2cache.overall_avg_mshr_miss_latency::total        59000                       # average overall mshr miss latency
system.l2cache.replacements                         0                       # number of replacements
system.l2cache.ReadSharedReq_misses::.cpu.inst            2                       # number of ReadSharedReq misses
system.l2cache.ReadSharedReq_misses::total            2                       # number of ReadSharedReq misses
system.l2cache.ReadSharedReq_miss_latency::.cpu.inst       120000                       # number of ReadSharedReq miss cycles
system.l2cache.ReadSharedReq_miss_latency::total       120000                       # number of ReadSharedReq miss cycles
system.l2cache.ReadSharedReq_accesses::.cpu.inst            2                       # number of ReadSharedReq accesses(hits+misses)
system.l2cache.ReadSharedReq_accesses::total            2                       # number of ReadSharedReq accesses(hits+misses)
system.l2cache.ReadSharedReq_miss_rate::.cpu.inst            1                       # miss rate for ReadSharedReq accesses
system.l2cache.ReadSharedReq_miss_rate::total            1                       # miss rate for ReadSharedReq accesses
system.l2cache.ReadSharedReq_avg_miss_latency::.cpu.inst        60000                       # average ReadSharedReq miss latency
system.l2cache.ReadSharedReq_avg_miss_latency::total        60000                       # average ReadSharedReq miss latency
system.l2cache.ReadSharedReq_mshr_misses::.cpu.inst            2                       # number of ReadSharedReq MSHR misses
system.l2cache.ReadSharedReq_mshr_misses::total            2                       # number of ReadSharedReq MSHR misses
system.l2cache.ReadSharedReq_mshr_miss_latency::.cpu.inst       118000                       # number of ReadSharedReq MSHR miss cycles
system.l2cache.ReadSharedReq_mshr_miss_latency::total       118000                       # number of ReadSharedReq MSHR miss cycles
system.l2cache.ReadSharedReq_mshr_miss_rate::.cpu.inst            1                       # mshr miss rate for ReadSharedReq accesses
system.l2cache.ReadSharedReq_mshr_miss_rate::total            1                       # mshr miss rate for ReadSharedReq accesses
system.l2cache.ReadSharedReq_avg_mshr_miss_latency::.cpu.inst        59000                       # average ReadSharedReq mshr miss latency
system.l2cache.ReadSharedReq_avg_mshr_miss_latency::total        59000                       # average ReadSharedReq mshr miss latency
system.l2cache.power_state.pwrStateResidencyTicks::UNDEFINED    105766000                       # Cumulative time (in ticks) in various power states
system.l2cache.tags.tagsinuse              650.996964                       # Cycle average of tags in use
system.l2cache.tags.total_refs                      0                       # Total number of references to valid blocks.
system.l2cache.tags.sampled_refs                    0                       # Sample count of references to valid blocks.
system.l2cache.tags.avg_refs                      nan                       # Average number of references to valid blocks.
system.l2cache.tags.warmup_cycle                    0                       # Cycle when the warmup percentage was hit.
system.l2cache.tags.occ_blocks::.cpu.inst   431.996964                       # Average occupied blocks per requestor
system.l2cache.tags.occ_blocks::.cpu.data          219                       # Average occupied blocks per requestor
system.l2cache.tags.occ_percent::.cpu.inst     0.026367                       # Average percentage of cache occupancy
system.l2cache.tags.occ_percent::.cpu.data     0.013367                       # Average percentage of cache occupancy
system.l2cache.tags.occ_percent::total       0.039734                       # Average percentage of cache occupancy
system.l2cache.tags.occ_task_id_blocks::1024          651                       # Occupied blocks per task id
system.l2cache.tags.age_task_id_blocks_1024::1          526                       # Occupied blocks per task id
system.l2cache.tags.age_task_id_blocks_1024::2          125                       # Occupied blocks per task id
system.l2cache.tags.occ_task_id_percent::1024     0.039734                       # Percentage of cache occupancy per task id
system.l2cache.tags.tag_accesses                   34                       # Number of tag accesses
system.l2cache.tags.data_accesses                  34                       # Number of data accesses
system.l2cache.tags.power_state.pwrStateResidencyTicks::UNDEFINED    105766000                       # Cumulative time (in ticks) in various power states
system.mem_ctrl.avgPriority_.cpu.inst::samples         2.00                       # Average QoS priority value for accepted requests
system.mem_ctrl.priorityMinLatency       0.000000017492                       # per QoS priority minimum request to response latency (s)
system.mem_ctrl.priorityMaxLatency       0.000000017492                       # per QoS priority maximum request to response latency (s)
system.mem_ctrl.numReadWriteTurnArounds             0                       # Number of turnarounds from READ to WRITE
system.mem_ctrl.numWriteReadTurnArounds             0                       # Number of turnarounds from WRITE to READ
system.mem_ctrl.numStayReadState                   22                       # Number of times bus staying in READ state
system.mem_ctrl.numStayWriteState                   0                       # Number of times bus staying in WRITE state
system.mem_ctrl.readReqs                            2                       # Number of read requests accepted
system.mem_ctrl.writeReqs                           0                       # Number of write requests accepted
system.mem_ctrl.readBursts                          2                       # Number of controller read bursts, including those serviced by the write queue
system.mem_ctrl.writeBursts                         0                       # Number of controller write bursts, including those merged in the write queue
system.mem_ctrl.servicedByWrQ                       0                       # Number of controller read bursts serviced by the write queue
system.mem_ctrl.mergedWrBursts                      0                       # Number of controller write bursts merged with an existing one
system.mem_ctrl.neitherReadNorWriteReqs             0                       # Number of requests that are neither read nor write
system.mem_ctrl.avgRdQLen                        1.00                       # Average read queue length when enqueuing
[...]
system.mem_ctrl.avgGap                       92500.00                       # Average gap between requests
system.mem_ctrl.requestorReadBytes::.cpu.inst          128                       # Per-requestor bytes read from memory
system.mem_ctrl.requestorReadRate::.cpu.inst 1734769.939689638792                       # Per-requestor bytes read from memory rate (Bytes/sec)
system.mem_ctrl.requestorReadAccesses::.cpu.inst            2                       # Per-requestor read serviced memory accesses
system.mem_ctrl.requestorReadTotalLat::.cpu.inst        34984                       # Per-requestor read total memory access latency
system.mem_ctrl.requestorReadAvgLat::.cpu.inst     17492.00                       # Per-requestor read average memory access latency
system.mem_ctrl.dram.bytes_read::.cpu.inst          128                       # Number of bytes read from this memory
system.mem_ctrl.dram.bytes_read::total            128                       # Number of bytes read from this memory
system.mem_ctrl.dram.bytes_inst_read::.cpu.inst          128                       # Number of instructions bytes read from this memory
system.mem_ctrl.dram.bytes_inst_read::total          128                       # Number of instructions bytes read from this memory
system.mem_ctrl.dram.num_reads::.cpu.inst            2                       # Number of read requests responded to by this memory
system.mem_ctrl.dram.num_reads::total               2                       # Number of read requests responded to by this memory
system.mem_ctrl.dram.bw_read::.cpu.inst       1734770                       # Total read bandwidth from this memory (bytes/s)
system.mem_ctrl.dram.bw_read::total           1734770                       # Total read bandwidth from this memory (bytes/s)
system.mem_ctrl.dram.bw_inst_read::.cpu.inst      1734770                       # Instruction read bandwidth from this memory (bytes/s)
system.mem_ctrl.dram.bw_inst_read::total      1734770                       # Instruction read bandwidth from this memory (bytes/s)
system.mem_ctrl.dram.bw_total::.cpu.inst      1734770                       # Total bandwidth to/from this memory (bytes/s)
system.mem_ctrl.dram.bw_total::total          1734770                       # Total bandwidth to/from this memory (bytes/s)
system.mem_ctrl.dram.readBursts                     2                       # Number of DRAM read bursts
system.mem_ctrl.dram.writeBursts                    0                       # Number of DRAM write bursts
system.mem_ctrl.dram.perBankRdBursts::0             0                       # Per bank write bursts
system.mem_ctrl.dram.perBankRdBursts::1             0                       # Per bank write bursts
system.mem_ctrl.dram.perBankRdBursts::2             0                       # Per bank write bursts
system.mem_ctrl.dram.perBankRdBursts::3             0                       # Per bank write bursts
system.mem_ctrl.dram.perBankRdBursts::4             0                       # Per bank write bursts
system.mem_ctrl.dram.perBankRdBursts::5             0                       # Per bank write bursts
system.mem_ctrl.dram.perBankRdBursts::6             0                       # Per bank write bursts
system.mem_ctrl.dram.perBankRdBursts::7             2                       # Per bank write bursts
system.mem_ctrl.dram.perBankRdBursts::8             0                       # Per bank write bursts
system.mem_ctrl.dram.perBankRdBursts::9             0                       # Per bank write bursts
system.mem_ctrl.dram.perBankRdBursts::10            0                       # Per bank write bursts
system.mem_ctrl.dram.perBankRdBursts::11            0                       # Per bank write bursts
system.mem_ctrl.dram.perBankRdBursts::12            0                       # Per bank write bursts
system.mem_ctrl.dram.perBankRdBursts::13            0                       # Per bank write bursts
system.mem_ctrl.dram.perBankRdBursts::14            0                       # Per bank write bursts
system.mem_ctrl.dram.perBankRdBursts::15            0                       # Per bank write bursts
system.mem_ctrl.dram.perBankRdBursts::16            0                       # Per bank write bursts
system.mem_ctrl.dram.perBankRdBursts::17            0                       # Per bank write bursts
system.mem_ctrl.dram.perBankRdBursts::18            0                       # Per bank write bursts
system.mem_ctrl.dram.perBankRdBursts::19            0                       # Per bank write bursts
system.mem_ctrl.dram.perBankRdBursts::20            0                       # Per bank write bursts
system.mem_ctrl.dram.perBankRdBursts::21            0                       # Per bank write bursts
system.mem_ctrl.dram.perBankRdBursts::22            0                       # Per bank write bursts
system.mem_ctrl.dram.perBankRdBursts::23            0                       # Per bank write bursts
system.mem_ctrl.dram.perBankRdBursts::24            0                       # Per bank write bursts
system.mem_ctrl.dram.perBankRdBursts::25            0                       # Per bank write bursts
system.mem_ctrl.dram.perBankRdBursts::26            0                       # Per bank write bursts
system.mem_ctrl.dram.perBankRdBursts::27            0                       # Per bank write bursts
system.mem_ctrl.dram.perBankRdBursts::28            0                       # Per bank write bursts
system.mem_ctrl.dram.perBankRdBursts::29            0                       # Per bank write bursts
system.mem_ctrl.dram.perBankRdBursts::30            0                       # Per bank write bursts
system.mem_ctrl.dram.perBankRdBursts::31            0                       # Per bank write bursts
system.mem_ctrl.dram.perBankWrBursts::0             0                       # Per bank write bursts
system.mem_ctrl.dram.perBankWrBursts::1             0                       # Per bank write bursts
system.mem_ctrl.dram.perBankWrBursts::2             0                       # Per bank write bursts
system.mem_ctrl.dram.perBankWrBursts::3             0                       # Per bank write bursts
system.mem_ctrl.dram.perBankWrBursts::4             0                       # Per bank write bursts
system.mem_ctrl.dram.perBankWrBursts::5             0                       # Per bank write bursts
system.mem_ctrl.dram.perBankWrBursts::6             0                       # Per bank write bursts
system.mem_ctrl.dram.perBankWrBursts::7             0                       # Per bank write bursts
system.mem_ctrl.dram.perBankWrBursts::8             0                       # Per bank write bursts
system.mem_ctrl.dram.perBankWrBursts::9             0                       # Per bank write bursts
system.mem_ctrl.dram.perBankWrBursts::10            0                       # Per bank write bursts
system.mem_ctrl.dram.perBankWrBursts::11            0                       # Per bank write bursts
system.mem_ctrl.dram.perBankWrBursts::12            0                       # Per bank write bursts
system.mem_ctrl.dram.perBankWrBursts::13            0                       # Per bank write bursts
system.mem_ctrl.dram.perBankWrBursts::14            0                       # Per bank write bursts
system.mem_ctrl.dram.perBankWrBursts::15            0                       # Per bank write bursts
system.mem_ctrl.dram.perBankWrBursts::16            0                       # Per bank write bursts
system.mem_ctrl.dram.perBankWrBursts::17            0                       # Per bank write bursts
system.mem_ctrl.dram.perBankWrBursts::18            0                       # Per bank write bursts
system.mem_ctrl.dram.perBankWrBursts::19            0                       # Per bank write bursts
system.mem_ctrl.dram.perBankWrBursts::20            0                       # Per bank write bursts
system.mem_ctrl.dram.perBankWrBursts::21            0                       # Per bank write bursts
system.mem_ctrl.dram.perBankWrBursts::22            0                       # Per bank write bursts
system.mem_ctrl.dram.perBankWrBursts::23            0                       # Per bank write bursts
system.mem_ctrl.dram.perBankWrBursts::24            0                       # Per bank write bursts
system.mem_ctrl.dram.perBankWrBursts::25            0                       # Per bank write bursts
system.mem_ctrl.dram.perBankWrBursts::26            0                       # Per bank write bursts
system.mem_ctrl.dram.perBankWrBursts::27            0                       # Per bank write bursts
system.mem_ctrl.dram.perBankWrBursts::28            0                       # Per bank write bursts
system.mem_ctrl.dram.perBankWrBursts::29            0                       # Per bank write bursts
system.mem_ctrl.dram.perBankWrBursts::30            0                       # Per bank write bursts
system.mem_ctrl.dram.perBankWrBursts::31            0                       # Per bank write bursts
system.mem_ctrl.dram.totQLat                        0                       # Total ticks spent queuing
system.mem_ctrl.dram.totBusLat                   6664                       # Total ticks spent in databus transfers
system.mem_ctrl.dram.totMemAccLat               34984                       # Total ticks spent from burst creation until serviced by the DRAM
system.mem_ctrl.dram.avgQLat                     0.00                       # Average queueing delay per DRAM burst
system.mem_ctrl.dram.avgBusLat                3332.00                       # Average bus latency per DRAM burst
system.mem_ctrl.dram.avgMemAccLat            17492.00                       # Average memory access latency per DRAM burst
system.mem_ctrl.dram.readRowHits                    2                       # Number of row buffer hits during reads
system.mem_ctrl.dram.writeRowHits                   0                       # Number of row buffer hits during writes
system.mem_ctrl.dram.readRowHitRate            100.00                       # Row buffer hit rate for reads
system.mem_ctrl.dram.writeRowHitRate              nan                       # Row buffer hit rate for writes
system.mem_ctrl.dram.bytesPerActivate::samples            6                       # Bytes accessed per row activation
system.mem_ctrl.dram.bytesPerActivate::mean   149.333333                       # Bytes accessed per row activation
system.mem_ctrl.dram.bytesPerActivate::gmean   126.630557                       # Bytes accessed per row activation
system.mem_ctrl.dram.bytesPerActivate::stdev    96.354900                       # Bytes accessed per row activation
system.mem_ctrl.dram.bytesPerActivate::64-95            2     33.33%     33.33% # Bytes accessed per row activation
system.mem_ctrl.dram.bytesPerActivate::128-159            2     33.33%     66.67% # Bytes accessed per row activation
system.mem_ctrl.dram.bytesPerActivate::192-223            1     16.67%     83.33% # Bytes accessed per row activation
system.mem_ctrl.dram.bytesPerActivate::320-351            1     16.67%    100.00% # Bytes accessed per row activation
system.mem_ctrl.dram.bytesPerActivate::total            6                       # Bytes accessed per row activation
system.mem_ctrl.dram.bytesRead                    128                       # Total number of bytes read from DRAM
system.mem_ctrl.dram.bytesWritten                   0                       # Total number of bytes written to DRAM
system.mem_ctrl.dram.avgRdBW                 1.734770                       # Average DRAM read bandwidth in MiBytes/s
system.mem_ctrl.dram.avgWrBW                        0                       # Average DRAM write bandwidth in MiBytes/s
system.mem_ctrl.dram.peakBW                  19207.00                       # Theoretical peak bandwidth in MiByte/s
system.mem_ctrl.dram.busUtil                     0.01                       # Data bus utilization in percentage
system.mem_ctrl.dram.busUtilRead                 0.01                       # Data bus utilization in percentage for reads
system.mem_ctrl.dram.busUtilWrite                0.00                       # Data bus utilization in percentage for writes
system.mem_ctrl.dram.pageHitRate               100.00                       # Row buffer hit rate, read and write combined
system.mem_ctrl.dram.power_state.pwrStateResidencyTicks::UNDEFINED    105766000                       # Cumulative time (in ticks) in various power states
system.mem_ctrl.dram.rank0.actEnergy     21831.264000                       # Energy for activate commands per rank (pJ)
system.mem_ctrl.dram.rank0.preEnergy     29024.385600                       # Energy for precharge commands per rank (pJ)
system.mem_ctrl.dram.rank0.readEnergy    63094.752000                       # Energy for read commands per rank (pJ)
system.mem_ctrl.dram.rank0.writeEnergy              0                       # Energy for write commands per rank (pJ)
system.mem_ctrl.dram.rank0.refreshEnergy 12468398.644800                       # Energy for refresh commands per rank (pJ)
system.mem_ctrl.dram.rank0.actBackEnergy 8878307.256000                       # Energy for active background per rank (pJ)
system.mem_ctrl.dram.rank0.preBackEnergy 41653731.840000                       # Energy for precharge background per rank (pJ)
system.mem_ctrl.dram.rank0.actPowerDownEnergy            0                       # Energy for active power-down per rank (pJ)
system.mem_ctrl.dram.rank0.prePowerDownEnergy            0                       # Energy for precharge power-down per rank (pJ)
system.mem_ctrl.dram.rank0.selfRefreshEnergy            0                       # Energy for self refresh per rank (pJ)
system.mem_ctrl.dram.rank0.totalEnergy   63114388.142400                       # Total energy per rank (pJ)
system.mem_ctrl.dram.rank0.averagePower    855.382370                       # Core power per rank (mW)
system.mem_ctrl.dram.rank0.totalIdleTime            0                       # Total Idle time Per DRAM Rank
system.mem_ctrl.dram.rank0.pwrStateTime::IDLE     63672640                       # Time in different power states
system.mem_ctrl.dram.rank0.pwrStateTime::REF      3150000                       # Time in different power states
system.mem_ctrl.dram.rank0.pwrStateTime::SREF            0                       # Time in different power states
system.mem_ctrl.dram.rank0.pwrStateTime::PRE_PDN            0                       # Time in different power states
system.mem_ctrl.dram.rank0.pwrStateTime::ACT      7435840                       # Time in different power states
system.mem_ctrl.dram.rank0.pwrStateTime::ACT_PDN            0                       # Time in different power states
system.mem_ctrl.dram.rank1.actEnergy                0                       # Energy for activate commands per rank (pJ)
system.mem_ctrl.dram.rank1.preEnergy                0                       # Energy for precharge commands per rank (pJ)
system.mem_ctrl.dram.rank1.readEnergy               0                       # Energy for read commands per rank (pJ)
system.mem_ctrl.dram.rank1.writeEnergy              0                       # Energy for write commands per rank (pJ)
system.mem_ctrl.dram.rank1.refreshEnergy 12468398.644800                       # Energy for refresh commands per rank (pJ)
system.mem_ctrl.dram.rank1.actBackEnergy 2573258.284800                       # Energy for active background per rank (pJ)
system.mem_ctrl.dram.rank1.preBackEnergy 46189420.838400                       # Energy for precharge background per rank (pJ)
system.mem_ctrl.dram.rank1.actPowerDownEnergy            0                       # Energy for active power-down per rank (pJ)
system.mem_ctrl.dram.rank1.prePowerDownEnergy            0                       # Energy for precharge power-down per rank (pJ)
system.mem_ctrl.dram.rank1.selfRefreshEnergy            0                       # Energy for self refresh per rank (pJ)
system.mem_ctrl.dram.rank1.totalEnergy   61231077.768000                       # Total energy per rank (pJ)
system.mem_ctrl.dram.rank1.averagePower    829.858071                       # Core power per rank (mW)
system.mem_ctrl.dram.rank1.totalIdleTime            0                       # Total Idle time Per DRAM Rank
system.mem_ctrl.dram.rank1.pwrStateTime::IDLE     71108480                       # Time in different power states
system.mem_ctrl.dram.rank1.pwrStateTime::REF      3150000                       # Time in different power states
system.mem_ctrl.dram.rank1.pwrStateTime::SREF            0                       # Time in different power states
system.mem_ctrl.dram.rank1.pwrStateTime::PRE_PDN            0                       # Time in different power states
system.mem_ctrl.dram.rank1.pwrStateTime::ACT            0                       # Time in different power states
system.mem_ctrl.dram.rank1.pwrStateTime::ACT_PDN            0                       # Time in different power states
system.mem_ctrl.power_state.pwrStateResidencyTicks::UNDEFINED    105766000                       # Cumulative time (in ticks) in various power states
system.membus.trans_dist::ReadResp                  2                       # Transaction distribution
system.membus.trans_dist::ReadSharedReq             2                       # Transaction distribution
system.membus.pkt_count_system.l2cache.mem_side_port::system.mem_ctrl.port            4                       # Packet count per connected requestor and responder (bytes)
system.membus.pkt_count_system.l2cache.mem_side_port::total            4                       # Packet count per connected requestor and responder (bytes)
system.membus.pkt_count::total                      4                       # Packet count per connected requestor and responder (bytes)
system.membus.pkt_size_system.l2cache.mem_side_port::system.mem_ctrl.port          128                       # Cumulative packet size per connected requestor and responder (bytes)
system.membus.pkt_size_system.l2cache.mem_side_port::total          128                       # Cumulative packet size per connected requestor and responder (bytes)
system.membus.pkt_size::total                     128                       # Cumulative packet size per connected requestor and responder (bytes)
system.membus.snoops                                0                       # Total snoops (count)
system.membus.snoopTraffic                          0                       # Total snoop traffic (bytes)
system.membus.snoop_fanout::samples                 2                       # Request fanout histogram
system.membus.snoop_fanout::mean                    0                       # Request fanout histogram
system.membus.snoop_fanout::stdev                   0                       # Request fanout histogram
system.membus.snoop_fanout::underflows              0      0.00%      0.00% # Request fanout histogram
system.membus.snoop_fanout::0                       2    100.00%    100.00% # Request fanout histogram
system.membus.snoop_fanout::1                       0      0.00%    100.00% # Request fanout histogram
system.membus.snoop_fanout::overflows               0      0.00%    100.00% # Request fanout histogram
system.membus.snoop_fanout::min_value               0                       # Request fanout histogram
system.membus.snoop_fanout::max_value               0                       # Request fanout histogram
system.membus.snoop_fanout::total                   2                       # Request fanout histogram
system.membus.power_state.pwrStateResidencyTicks::UNDEFINED    105766000                       # Cumulative time (in ticks) in various power states
system.membus.reqLayer0.occupancy                2000                       # Layer occupancy (ticks)
system.membus.reqLayer0.utilization               0.0                       # Layer utilization (%)
system.membus.respLayer0.occupancy               5016                       # Layer occupancy (ticks)
system.membus.respLayer0.utilization              0.0                       # Layer utilization (%)

---------- End Simulation Statistics   ----------
