
---------- Begin Simulation Statistics ----------
final_tick                                39908008500                       # Number of ticks from beginning of simulation (restored from checkpoints and never reset)
host_inst_rate                                  77821                       # Simulator instruction rate (inst/s)
host_mem_usage                                 725120                       # Number of bytes of host memory used
host_op_rate                                   120722                       # Simulator op (including micro ops) rate (op/s)
host_seconds                                  1285.00                       # Real time elapsed on the host
host_tick_rate                               31056736                       # Simulator tick rate (ticks/s)
sim_freq                                 1000000000000                       # Frequency of simulated ticks
sim_insts                                   100000000                       # Number of instructions simulated
sim_ops                                     155128130                       # Number of ops (including micro ops) simulated
sim_seconds                                  0.039908                       # Number of seconds simulated
sim_ticks                                 39908008500                       # Number of ticks simulated
system.cpu.cc_regfile_reads                  92451157                       # number of cc regfile reads
system.cpu.cc_regfile_writes                 87573939                       # number of cc regfile writes
system.cpu.committedInsts                   100000000                       # Number of Instructions Simulated
system.cpu.committedOps                     155128130                       # Number of Ops (including micro ops) Simulated
system.cpu.cpi                               0.798160                       # CPI: Cycles Per Instruction
system.cpu.cpi_total                         0.798160                       # CPI: Total CPI of All Threads
system.cpu.fp_regfile_reads                   7451428                       # number of floating regfile reads
system.cpu.fp_regfile_writes                  5722401                       # number of floating regfile writes
system.cpu.idleCycles                          135488                       # Total number of cycles that the CPU has spent unscheduled due to idling
system.cpu.iew.branchMispredicts              1546468                       # Number of branch mispredicts detected at execute
system.cpu.iew.exec_branches                 12889225                       # Number of branches executed
system.cpu.iew.exec_nop                             0                       # number of nop insts executed
system.cpu.iew.exec_rate                     2.403839                       # Inst execution rate
system.cpu.iew.exec_refs                     48401144                       # number of memory reference insts executed
system.cpu.iew.exec_stores                   13906342                       # Number of stores executed
system.cpu.iew.exec_swp                             0                       # number of swp insts executed
system.cpu.iew.iewBlockCycles                 9134297                       # Number of cycles IEW is blocking
system.cpu.iew.iewDispLoadInsts              42998915                       # Number of dispatched load instructions
system.cpu.iew.iewDispNonSpecInsts                947                       # Number of dispatched non-speculative instructions
system.cpu.iew.iewDispSquashedInsts              4261                       # Number of squashed instructions skipped by dispatch
system.cpu.iew.iewDispStoreInsts             14306406                       # Number of dispatched store instructions
system.cpu.iew.iewDispatchedInsts           228217728                       # Number of instructions dispatched to IQ
system.cpu.iew.iewExecLoadInsts              34494802                       # Number of load instructions executed
system.cpu.iew.iewExecSquashedInsts           3605258                       # Number of squashed instructions skipped in execute
system.cpu.iew.iewExecutedInsts             191864889                       # Number of executed instructions
system.cpu.iew.iewIQFullEvents                  16023                       # Number of times the IQ has become full, causing a stall
system.cpu.iew.iewIdleCycles                        0                       # Number of cycles IEW is idle
system.cpu.iew.iewLSQFullEvents               2471642                       # Number of times the LSQ has become full, causing a stall
system.cpu.iew.iewSquashCycles                1293956                       # Number of cycles IEW is squashing
system.cpu.iew.iewUnblockCycles               2495560                       # Number of cycles IEW is unblocking
system.cpu.iew.memOrderViolationEvents           1994                       # Number of memory order violations
system.cpu.iew.predictedNotTakenIncorrect       768899                       # Number of branches that were predicted not taken incorrectly
system.cpu.iew.predictedTakenIncorrect         777569                       # Number of branches that were predicted taken incorrectly
system.cpu.iew.wb_consumers                 248194003                       # num instructions consuming a value
system.cpu.iew.wb_count                     189424738                       # cumulative count of insts written-back
system.cpu.iew.wb_fanout                     0.582980                       # average fanout of values written-back
system.cpu.iew.wb_producers                 144692194                       # num instructions producing a value
system.cpu.iew.wb_rate                       2.373267                       # insts written-back per cycle
system.cpu.iew.wb_sent                      190555856                       # cumulative count of insts sent to commit
system.cpu.int_regfile_reads                302519614                       # number of integer regfile reads
system.cpu.int_regfile_writes               156053712                       # number of integer regfile writes
system.cpu.ipc                               1.252881                       # IPC: Instructions Per Cycle
system.cpu.ipc_total                         1.252881                       # IPC: Total IPC of All Threads
system.cpu.iq.FU_type_0::No_OpClass           2139893      1.09%      1.09% # Type of FU issued
system.cpu.iq.FU_type_0::IntAlu             139174042     71.20%     72.29% # Type of FU issued
system.cpu.iq.FU_type_0::IntMult                   49      0.00%     72.29% # Type of FU issued
system.cpu.iq.FU_type_0::IntDiv                 48535      0.02%     72.32% # Type of FU issued
system.cpu.iq.FU_type_0::FloatAdd             1677511      0.86%     73.18% # Type of FU issued
system.cpu.iq.FU_type_0::FloatCmp                   0      0.00%     73.18% # Type of FU issued
system.cpu.iq.FU_type_0::FloatCvt                1453      0.00%     73.18% # Type of FU issued
system.cpu.iq.FU_type_0::FloatMult                  0      0.00%     73.18% # Type of FU issued
system.cpu.iq.FU_type_0::FloatMultAcc               0      0.00%     73.18% # Type of FU issued
system.cpu.iq.FU_type_0::FloatDiv                   0      0.00%     73.18% # Type of FU issued
system.cpu.iq.FU_type_0::FloatMisc                  0      0.00%     73.18% # Type of FU issued
system.cpu.iq.FU_type_0::FloatSqrt                  0      0.00%     73.18% # Type of FU issued
system.cpu.iq.FU_type_0::SimdAdd                 9119      0.00%     73.18% # Type of FU issued
system.cpu.iq.FU_type_0::SimdAddAcc                 0      0.00%     73.18% # Type of FU issued
system.cpu.iq.FU_type_0::SimdAlu               106393      0.05%     73.24% # Type of FU issued
system.cpu.iq.FU_type_0::SimdCmp                    6      0.00%     73.24% # Type of FU issued
system.cpu.iq.FU_type_0::SimdCvt                20274      0.01%     73.25% # Type of FU issued
system.cpu.iq.FU_type_0::SimdMisc             3357016      1.72%     74.97% # Type of FU issued
system.cpu.iq.FU_type_0::SimdMult                   0      0.00%     74.97% # Type of FU issued
system.cpu.iq.FU_type_0::SimdMultAcc                0      0.00%     74.97% # Type of FU issued
system.cpu.iq.FU_type_0::SimdShift               5726      0.00%     74.97% # Type of FU issued
system.cpu.iq.FU_type_0::SimdShiftAcc               0      0.00%     74.97% # Type of FU issued
system.cpu.iq.FU_type_0::SimdDiv                    0      0.00%     74.97% # Type of FU issued
system.cpu.iq.FU_type_0::SimdSqrt                   0      0.00%     74.97% # Type of FU issued
system.cpu.iq.FU_type_0::SimdFloatAdd               0      0.00%     74.97% # Type of FU issued
system.cpu.iq.FU_type_0::SimdFloatAlu               0      0.00%     74.97% # Type of FU issued
system.cpu.iq.FU_type_0::SimdFloatCmp               0      0.00%     74.97% # Type of FU issued
system.cpu.iq.FU_type_0::SimdFloatCvt           44702      0.02%     74.99% # Type of FU issued
system.cpu.iq.FU_type_0::SimdFloatDiv               0      0.00%     74.99% # Type of FU issued
system.cpu.iq.FU_type_0::SimdFloatMisc              0      0.00%     74.99% # Type of FU issued
system.cpu.iq.FU_type_0::SimdFloatMult          19924      0.01%     75.00% # Type of FU issued
system.cpu.iq.FU_type_0::SimdFloatMultAcc            0      0.00%     75.00% # Type of FU issued
system.cpu.iq.FU_type_0::SimdFloatSqrt              0      0.00%     75.00% # Type of FU issued
system.cpu.iq.FU_type_0::SimdReduceAdd              0      0.00%     75.00% # Type of FU issued
system.cpu.iq.FU_type_0::SimdReduceAlu              0      0.00%     75.00% # Type of FU issued
system.cpu.iq.FU_type_0::SimdReduceCmp              0      0.00%     75.00% # Type of FU issued
system.cpu.iq.FU_type_0::SimdFloatReduceAdd            0      0.00%     75.00% # Type of FU issued
system.cpu.iq.FU_type_0::SimdFloatReduceCmp            0      0.00%     75.00% # Type of FU issued
system.cpu.iq.FU_type_0::SimdAes                    0      0.00%     75.00% # Type of FU issued
system.cpu.iq.FU_type_0::SimdAesMix                 0      0.00%     75.00% # Type of FU issued
system.cpu.iq.FU_type_0::SimdSha1Hash               0      0.00%     75.00% # Type of FU issued
system.cpu.iq.FU_type_0::SimdSha1Hash2              0      0.00%     75.00% # Type of FU issued
system.cpu.iq.FU_type_0::SimdSha256Hash             0      0.00%     75.00% # Type of FU issued
system.cpu.iq.FU_type_0::SimdSha256Hash2            0      0.00%     75.00% # Type of FU issued
system.cpu.iq.FU_type_0::SimdShaSigma2              0      0.00%     75.00% # Type of FU issued
system.cpu.iq.FU_type_0::SimdShaSigma3              0      0.00%     75.00% # Type of FU issued
system.cpu.iq.FU_type_0::SimdPredAlu                0      0.00%     75.00% # Type of FU issued
system.cpu.iq.FU_type_0::MemRead             34739093     17.77%     92.77% # Type of FU issued
system.cpu.iq.FU_type_0::MemWrite            12889747      6.59%     99.37% # Type of FU issued
system.cpu.iq.FU_type_0::FloatMemRead          102135      0.05%     99.42% # Type of FU issued
system.cpu.iq.FU_type_0::FloatMemWrite        1134530      0.58%    100.00% # Type of FU issued
system.cpu.iq.FU_type_0::IprAccess                  0      0.00%    100.00% # Type of FU issued
system.cpu.iq.FU_type_0::InstPrefetch               0      0.00%    100.00% # Type of FU issued
system.cpu.iq.FU_type_0::total              195470148                       # Type of FU issued
system.cpu.iq.fp_alu_accesses                 7314405                       # Number of floating point alu accesses
system.cpu.iq.fp_inst_queue_reads            14214305                       # Number of floating instruction queue reads
system.cpu.iq.fp_inst_queue_wakeup_accesses      6852170                       # Number of floating instruction queue wakeup accesses
system.cpu.iq.fp_inst_queue_writes            7314636                       # Number of floating instruction queue writes
system.cpu.iq.fu_busy_cnt                     2862615                       # FU busy when requested
system.cpu.iq.fu_busy_rate                   0.014645                       # FU busy rate (busy events/executed inst)
system.cpu.iq.fu_full::No_OpClass                   0      0.00%      0.00% # attempts to use FU when none available
system.cpu.iq.fu_full::IntAlu                 1172594     40.96%     40.96% # attempts to use FU when none available
system.cpu.iq.fu_full::IntMult                      0      0.00%     40.96% # attempts to use FU when none available
system.cpu.iq.fu_full::IntDiv                       0      0.00%     40.96% # attempts to use FU when none available
system.cpu.iq.fu_full::FloatAdd                     0      0.00%     40.96% # attempts to use FU when none available
system.cpu.iq.fu_full::FloatCmp                     0      0.00%     40.96% # attempts to use FU when none available
system.cpu.iq.fu_full::FloatCvt                     0      0.00%     40.96% # attempts to use FU when none available
system.cpu.iq.fu_full::FloatMult                    0      0.00%     40.96% # attempts to use FU when none available
system.cpu.iq.fu_full::FloatMultAcc                 0      0.00%     40.96% # attempts to use FU when none available
system.cpu.iq.fu_full::FloatDiv                     0      0.00%     40.96% # attempts to use FU when none available
system.cpu.iq.fu_full::FloatMisc                    0      0.00%     40.96% # attempts to use FU when none available
system.cpu.iq.fu_full::FloatSqrt                    0      0.00%     40.96% # attempts to use FU when none available
system.cpu.iq.fu_full::SimdAdd                      3      0.00%     40.96% # attempts to use FU when none available
system.cpu.iq.fu_full::SimdAddAcc                   0      0.00%     40.96% # attempts to use FU when none available
system.cpu.iq.fu_full::SimdAlu                    149      0.01%     40.97% # attempts to use FU when none available
system.cpu.iq.fu_full::SimdCmp                      0      0.00%     40.97% # attempts to use FU when none available
system.cpu.iq.fu_full::SimdCvt                    961      0.03%     41.00% # attempts to use FU when none available
system.cpu.iq.fu_full::SimdMisc                412324     14.40%     55.40% # attempts to use FU when none available
system.cpu.iq.fu_full::SimdMult                     0      0.00%     55.40% # attempts to use FU when none available
system.cpu.iq.fu_full::SimdMultAcc                  0      0.00%     55.40% # attempts to use FU when none available
system.cpu.iq.fu_full::SimdShift                   61      0.00%     55.41% # attempts to use FU when none available
system.cpu.iq.fu_full::SimdShiftAcc                 0      0.00%     55.41% # attempts to use FU when none available
system.cpu.iq.fu_full::SimdDiv                      0      0.00%     55.41% # attempts to use FU when none available
system.cpu.iq.fu_full::SimdSqrt                     0      0.00%     55.41% # attempts to use FU when none available
system.cpu.iq.fu_full::SimdFloatAdd                 0      0.00%     55.41% # attempts to use FU when none available
system.cpu.iq.fu_full::SimdFloatAlu                 0      0.00%     55.41% # attempts to use FU when none available
system.cpu.iq.fu_full::SimdFloatCmp                 0      0.00%     55.41% # attempts to use FU when none available
system.cpu.iq.fu_full::SimdFloatCvt                 0      0.00%     55.41% # attempts to use FU when none available
system.cpu.iq.fu_full::SimdFloatDiv                 0      0.00%     55.41% # attempts to use FU when none available
system.cpu.iq.fu_full::SimdFloatMisc                0      0.00%     55.41% # attempts to use FU when none available
system.cpu.iq.fu_full::SimdFloatMult                0      0.00%     55.41% # attempts to use FU when none available
system.cpu.iq.fu_full::SimdFloatMultAcc             0      0.00%     55.41% # attempts to use FU when none available
system.cpu.iq.fu_full::SimdFloatSqrt                0      0.00%     55.41% # attempts to use FU when none available
system.cpu.iq.fu_full::SimdReduceAdd                0      0.00%     55.41% # attempts to use FU when none available
system.cpu.iq.fu_full::SimdReduceAlu                0      0.00%     55.41% # attempts to use FU when none available
system.cpu.iq.fu_full::SimdReduceCmp                0      0.00%     55.41% # attempts to use FU when none available
system.cpu.iq.fu_full::SimdFloatReduceAdd            0      0.00%     55.41% # attempts to use FU when none available
system.cpu.iq.fu_full::SimdFloatReduceCmp            0      0.00%     55.41% # attempts to use FU when none available
system.cpu.iq.fu_full::SimdAes                      0      0.00%     55.41% # attempts to use FU when none available
system.cpu.iq.fu_full::SimdAesMix                   0      0.00%     55.41% # attempts to use FU when none available
system.cpu.iq.fu_full::SimdSha1Hash                 0      0.00%     55.41% # attempts to use FU when none available
system.cpu.iq.fu_full::SimdSha1Hash2                0      0.00%     55.41% # attempts to use FU when none available
system.cpu.iq.fu_full::SimdSha256Hash               0      0.00%     55.41% # attempts to use FU when none available
system.cpu.iq.fu_full::SimdSha256Hash2              0      0.00%     55.41% # attempts to use FU when none available
system.cpu.iq.fu_full::SimdShaSigma2                0      0.00%     55.41% # attempts to use FU when none available
system.cpu.iq.fu_full::SimdShaSigma3                0      0.00%     55.41% # attempts to use FU when none available
system.cpu.iq.fu_full::SimdPredAlu                  0      0.00%     55.41% # attempts to use FU when none available
system.cpu.iq.fu_full::MemRead                1264589     44.18%     99.58% # attempts to use FU when none available
system.cpu.iq.fu_full::MemWrite                 10627      0.37%     99.95% # attempts to use FU when none available
system.cpu.iq.fu_full::FloatMemRead               595      0.02%     99.98% # attempts to use FU when none available
system.cpu.iq.fu_full::FloatMemWrite              712      0.02%    100.00% # attempts to use FU when none available
system.cpu.iq.fu_full::IprAccess                    0      0.00%    100.00% # attempts to use FU when none available
system.cpu.iq.fu_full::InstPrefetch                 0      0.00%    100.00% # attempts to use FU when none available
system.cpu.iq.int_alu_accesses              188878465                       # Number of integer alu accesses
system.cpu.iq.int_inst_queue_reads          459585219                       # Number of integer instruction queue reads
system.cpu.iq.int_inst_queue_wakeup_accesses    182572568                       # Number of integer instruction queue wakeup accesses
system.cpu.iq.int_inst_queue_writes         293994578                       # Number of integer instruction queue writes
system.cpu.iq.iqInstsAdded                  228216308                       # Number of instructions added to the IQ (excludes non-spec)
system.cpu.iq.iqInstsIssued                 195470148                       # Number of instructions issued
system.cpu.iq.iqNonSpecInstsAdded                1420                       # Number of non-speculative instructions added to the IQ
system.cpu.iq.iqSquashedInstsExamined        73089522                       # Number of squashed instructions iterated over during squash; mainly for profiling
system.cpu.iq.iqSquashedInstsIssued            316084                       # Number of squashed instructions issued
system.cpu.iq.iqSquashedNonSpecRemoved            217                       # Number of squashed non-spec instructions that were removed
system.cpu.iq.iqSquashedOperandsExamined    151977879                       # Number of squashed operands that are examined and possibly removed from graph
system.cpu.iq.issued_per_cycle::samples      79680530                       # Number of insts issued each cycle
system.cpu.iq.issued_per_cycle::mean         2.453173                       # Number of insts issued each cycle
system.cpu.iq.issued_per_cycle::stdev        2.220801                       # Number of insts issued each cycle
system.cpu.iq.issued_per_cycle::underflows            0      0.00%      0.00% # Number of insts issued each cycle
system.cpu.iq.issued_per_cycle::0            21986414     27.59%     27.59% # Number of insts issued each cycle
system.cpu.iq.issued_per_cycle::1            10659608     13.38%     40.97% # Number of insts issued each cycle
system.cpu.iq.issued_per_cycle::2            11410237     14.32%     55.29% # Number of insts issued each cycle
system.cpu.iq.issued_per_cycle::3            12090511     15.17%     70.46% # Number of insts issued each cycle
system.cpu.iq.issued_per_cycle::4             7653749      9.61%     80.07% # Number of insts issued each cycle
system.cpu.iq.issued_per_cycle::5             5816171      7.30%     87.37% # Number of insts issued each cycle
system.cpu.iq.issued_per_cycle::6             6379232      8.01%     95.38% # Number of insts issued each cycle
system.cpu.iq.issued_per_cycle::7             1729574      2.17%     97.55% # Number of insts issued each cycle
system.cpu.iq.issued_per_cycle::8             1955034      2.45%    100.00% # Number of insts issued each cycle
system.cpu.iq.issued_per_cycle::overflows            0      0.00%    100.00% # Number of insts issued each cycle
system.cpu.iq.issued_per_cycle::min_value            0                       # Number of insts issued each cycle
system.cpu.iq.issued_per_cycle::max_value            8                       # Number of insts issued each cycle
system.cpu.iq.issued_per_cycle::total        79680530                       # Number of insts issued each cycle
system.cpu.iq.rate                           2.449009                       # Inst issue rate
system.cpu.iq.vec_alu_accesses                      0                       # Number of vector alu accesses
system.cpu.iq.vec_inst_queue_reads                  0                       # Number of vector instruction queue reads
system.cpu.iq.vec_inst_queue_wakeup_accesses            0                       # Number of vector instruction queue wakeup accesses
system.cpu.iq.vec_inst_queue_writes                 0                       # Number of vector instruction queue writes
system.cpu.memDep0.conflictingLoads           2941476                       # Number of conflicting loads.
system.cpu.memDep0.conflictingStores          1043738                       # Number of conflicting stores.
system.cpu.memDep0.insertedLoads             42998915                       # Number of loads inserted to the mem dependence unit.
system.cpu.memDep0.insertedStores            14306406                       # Number of stores inserted to the mem dependence unit.
system.cpu.misc_regfile_reads                81660628                       # number of misc regfile reads
system.cpu.misc_regfile_writes                    702                       # number of misc regfile writes
system.cpu.numCycles                         79816018                       # number of cpu cycles simulated
system.cpu.numWorkItemsCompleted                    0                       # number of work items this cpu completed
system.cpu.numWorkItemsStarted                      0                       # number of work items this cpu started
system.cpu.timesIdled                            1512                       # Number of times that the entire CPU went into an idle state and unscheduled itself
system.cpu.workload.numSyscalls                    85                       # Number of system calls
system.membus.snoop_filter.hit_multi_requests            0                       # Number of requests hitting in the snoop filter with multiple (>1) holders of the requested data.
system.membus.snoop_filter.hit_multi_snoops            0                       # Number of snoops hitting in the snoop filter with multiple (>1) holders of the requested data.
system.membus.snoop_filter.hit_single_requests        41404                       # Number of requests hitting in the snoop filter with a single holder of the requested data.
system.membus.snoop_filter.hit_single_snoops            0                       # Number of snoops hitting in the snoop filter with a single holder of the requested data.
system.membus.snoop_filter.tot_requests         91439                       # Total number of requests made to the snoop filter.
system.membus.snoop_filter.tot_snoops               0                       # Total number of snoops made to the snoop filter.
system.tol2bus.snoop_filter.hit_multi_requests           15                       # Number of requests hitting in the snoop filter with multiple (>1) holders of the requested data.
system.tol2bus.snoop_filter.hit_multi_snoops            0                       # Number of snoops hitting in the snoop filter with multiple (>1) holders of the requested data.
system.tol2bus.snoop_filter.hit_single_requests       102235                       # Number of requests hitting in the snoop filter with a single holder of the requested data.
system.tol2bus.snoop_filter.hit_single_snoops          897                       # Number of snoops hitting in the snoop filter with a single holder of the requested data.
system.tol2bus.snoop_filter.tot_requests       205493                       # Total number of requests made to the snoop filter.
system.tol2bus.snoop_filter.tot_snoops            897                       # Total number of snoops made to the snoop filter.
system.clk_domain.clock                           250                       # Clock period in ticks
system.cpu.branchPred.lookups                29846800                       # Number of BP lookups
system.cpu.branchPred.condPredicted          24507488                       # Number of conditional branches predicted
system.cpu.branchPred.condIncorrect           1292584                       # Number of conditional branches incorrect
system.cpu.branchPred.BTBLookups             14860897                       # Number of BTB lookups
system.cpu.branchPred.BTBHits                14845979                       # Number of BTB hits
system.cpu.branchPred.BTBHitPct             99.899616                       # BTB Hit Percentage
system.cpu.branchPred.RASUsed                 2322872                       # Number of times the RAS was used to get a target.
system.cpu.branchPred.RASIncorrect                 13                       # Number of incorrect RAS predictions.
system.cpu.branchPred.indirectLookups           21930                       # Number of indirect predictor lookups.
system.cpu.branchPred.indirectHits              10552                       # Number of indirect target hits.
system.cpu.branchPred.indirectMisses            11378                       # Number of indirect misses.
system.cpu.branchPred.indirectMispredicted         1768                       # Number of mispredicted indirect branches.
system.cpu.commit.commitSquashedInsts        73083139                       # The number of squashed insts skipped by commit
system.cpu.commit.commitNonSpecStalls            1203                       # The number of times commit has been forced to stall to communicate backwards
system.cpu.commit.branchMispredicts           1291654                       # The number of times a branch was mispredicted
system.cpu.commit.numCommittedDist::samples     69995312                       # Number of insts commited each cycle
system.cpu.commit.numCommittedDist::mean     2.216265                       # Number of insts commited each cycle
system.cpu.commit.numCommittedDist::stdev     2.344409                       # Number of insts commited each cycle
system.cpu.commit.numCommittedDist::underflows            0      0.00%      0.00% # Number of insts commited each cycle
system.cpu.commit.numCommittedDist::0        18600226     26.57%     26.57% # Number of insts commited each cycle
system.cpu.commit.numCommittedDist::1        16298834     23.29%     49.86% # Number of insts commited each cycle
system.cpu.commit.numCommittedDist::2        12726946     18.18%     68.04% # Number of insts commited each cycle
system.cpu.commit.numCommittedDist::3         7722078     11.03%     79.07% # Number of insts commited each cycle
system.cpu.commit.numCommittedDist::4         2326971      3.32%     82.40% # Number of insts commited each cycle
system.cpu.commit.numCommittedDist::5         4743571      6.78%     89.18% # Number of insts commited each cycle
system.cpu.commit.numCommittedDist::6         1266847      1.81%     90.99% # Number of insts commited each cycle
system.cpu.commit.numCommittedDist::7          896363      1.28%     92.27% # Number of insts commited each cycle
system.cpu.commit.numCommittedDist::8         5413476      7.73%    100.00% # Number of insts commited each cycle
system.cpu.commit.numCommittedDist::overflows            0      0.00%    100.00% # Number of insts commited each cycle
system.cpu.commit.numCommittedDist::min_value            0                       # Number of insts commited each cycle
system.cpu.commit.numCommittedDist::max_value            8                       # Number of insts commited each cycle
system.cpu.commit.numCommittedDist::total     69995312                       # Number of insts commited each cycle
system.cpu.commit.instsCommitted            100000000                       # Number of instructions committed
system.cpu.commit.opsCommitted              155128130                       # Number of ops (including micro ops) committed
system.cpu.commit.memRefs                    42889622                       # Number of memory references committed
system.cpu.commit.loads                      29551957                       # Number of loads committed
system.cpu.commit.amos                              0                       # Number of atomic instructions committed
system.cpu.commit.membars                         334                       # Number of memory barriers committed
system.cpu.commit.branches                   10777716                       # Number of branches committed
system.cpu.commit.vector                            0                       # Number of committed Vector instructions.
system.cpu.commit.floating                    6695446                       # Number of committed floating point instructions.
system.cpu.commit.integer                   149356127                       # Number of committed integer instructions.
system.cpu.commit.functionCalls               1895863                       # Number of function calls committed.
system.cpu.commit.committedInstType_0::No_OpClass      1916377      1.24%      1.24% # Class of committed instruction
system.cpu.commit.committedInstType_0::IntAlu    105159033     67.79%     69.02% # Class of committed instruction
system.cpu.commit.committedInstType_0::IntMult           38      0.00%     69.02% # Class of committed instruction
system.cpu.commit.committedInstType_0::IntDiv        40525      0.03%     69.05% # Class of committed instruction
system.cpu.commit.committedInstType_0::FloatAdd      1674103      1.08%     70.13% # Class of committed instruction
system.cpu.commit.committedInstType_0::FloatCmp            0      0.00%     70.13% # Class of committed instruction
system.cpu.commit.committedInstType_0::FloatCvt         1248      0.00%     70.13% # Class of committed instruction
system.cpu.commit.committedInstType_0::FloatMult            0      0.00%     70.13% # Class of committed instruction
system.cpu.commit.committedInstType_0::FloatMultAcc            0      0.00%     70.13% # Class of committed instruction
system.cpu.commit.committedInstType_0::FloatDiv            0      0.00%     70.13% # Class of committed instruction
system.cpu.commit.committedInstType_0::FloatMisc            0      0.00%     70.13% # Class of committed instruction
system.cpu.commit.committedInstType_0::FloatSqrt            0      0.00%     70.13% # Class of committed instruction
system.cpu.commit.committedInstType_0::SimdAdd         7936      0.01%     70.14% # Class of committed instruction
system.cpu.commit.committedInstType_0::SimdAddAcc            0      0.00%     70.14% # Class of committed instruction
system.cpu.commit.committedInstType_0::SimdAlu        35475      0.02%     70.16% # Class of committed instruction
system.cpu.commit.committedInstType_0::SimdCmp            6      0.00%     70.16% # Class of committed instruction
system.cpu.commit.committedInstType_0::SimdCvt        16320      0.01%     70.17% # Class of committed instruction
system.cpu.commit.committedInstType_0::SimdMisc      3353871      2.16%     72.33% # Class of committed instruction
system.cpu.commit.committedInstType_0::SimdMult            0      0.00%     72.33% # Class of committed instruction
system.cpu.commit.committedInstType_0::SimdMultAcc            0      0.00%     72.33% # Class of committed instruction
system.cpu.commit.committedInstType_0::SimdShift         2037      0.00%     72.33% # Class of committed instruction
system.cpu.commit.committedInstType_0::SimdShiftAcc            0      0.00%     72.33% # Class of committed instruction
system.cpu.commit.committedInstType_0::SimdDiv            0      0.00%     72.33% # Class of committed instruction
system.cpu.commit.committedInstType_0::SimdSqrt            0      0.00%     72.33% # Class of committed instruction
system.cpu.commit.committedInstType_0::SimdFloatAdd            0      0.00%     72.33% # Class of committed instruction
system.cpu.commit.committedInstType_0::SimdFloatAlu            0      0.00%     72.33% # Class of committed instruction
system.cpu.commit.committedInstType_0::SimdFloatCmp            0      0.00%     72.33% # Class of committed instruction
system.cpu.commit.committedInstType_0::SimdFloatCvt        21026      0.01%     72.35% # Class of committed instruction
system.cpu.commit.committedInstType_0::SimdFloatDiv            0      0.00%     72.35% # Class of committed instruction
system.cpu.commit.committedInstType_0::SimdFloatMisc            0      0.00%     72.35% # Class of committed instruction
system.cpu.commit.committedInstType_0::SimdFloatMult        10513      0.01%     72.35% # Class of committed instruction
system.cpu.commit.committedInstType_0::SimdFloatMultAcc            0      0.00%     72.35% # Class of committed instruction
system.cpu.commit.committedInstType_0::SimdFloatSqrt            0      0.00%     72.35% # Class of committed instruction
system.cpu.commit.committedInstType_0::SimdReduceAdd            0      0.00%     72.35% # Class of committed instruction
system.cpu.commit.committedInstType_0::SimdReduceAlu            0      0.00%     72.35% # Class of committed instruction
system.cpu.commit.committedInstType_0::SimdReduceCmp            0      0.00%     72.35% # Class of committed instruction
system.cpu.commit.committedInstType_0::SimdFloatReduceAdd            0      0.00%     72.35% # Class of committed instruction
system.cpu.commit.committedInstType_0::SimdFloatReduceCmp            0      0.00%     72.35% # Class of committed instruction
system.cpu.commit.committedInstType_0::SimdAes            0      0.00%     72.35% # Class of committed instruction
system.cpu.commit.committedInstType_0::SimdAesMix            0      0.00%     72.35% # Class of committed instruction
system.cpu.commit.committedInstType_0::SimdSha1Hash            0      0.00%     72.35% # Class of committed instruction
system.cpu.commit.committedInstType_0::SimdSha1Hash2            0      0.00%     72.35% # Class of committed instruction
system.cpu.commit.committedInstType_0::SimdSha256Hash            0      0.00%     72.35% # Class of committed instruction
system.cpu.commit.committedInstType_0::SimdSha256Hash2            0      0.00%     72.35% # Class of committed instruction
system.cpu.commit.committedInstType_0::SimdShaSigma2            0      0.00%     72.35% # Class of committed instruction
system.cpu.commit.committedInstType_0::SimdShaSigma3            0      0.00%     72.35% # Class of committed instruction
system.cpu.commit.committedInstType_0::SimdPredAlu            0      0.00%     72.35% # Class of committed instruction
system.cpu.commit.committedInstType_0::MemRead     29509372     19.02%     91.37% # Class of committed instruction
system.cpu.commit.committedInstType_0::MemWrite     12227119      7.88%     99.26% # Class of committed instruction
system.cpu.commit.committedInstType_0::FloatMemRead        42585      0.03%     99.28% # Class of committed instruction
system.cpu.commit.committedInstType_0::FloatMemWrite      1110546      0.72%    100.00% # Class of committed instruction
system.cpu.commit.committedInstType_0::IprAccess            0      0.00%    100.00% # Class of committed instruction
system.cpu.commit.committedInstType_0::InstPrefetch            0      0.00%    100.00% # Class of committed instruction
system.cpu.commit.committedInstType_0::total    155128130                       # Class of committed instruction
system.cpu.commit.commitEligibleSamples       5413476                       # number cycles where commit BW limit reached
system.cpu.dcache.demand_hits::.cpu.data     36968668                       # number of demand (read+write) hits
system.cpu.dcache.demand_hits::total         36968668                       # number of demand (read+write) hits
system.cpu.dcache.overall_hits::.cpu.data     36968668                       # number of overall hits
system.cpu.dcache.overall_hits::total        36968668                       # number of overall hits
system.cpu.dcache.demand_misses::.cpu.data       178118                       # number of demand (read+write) misses
system.cpu.dcache.demand_misses::total         178118                       # number of demand (read+write) misses
system.cpu.dcache.overall_misses::.cpu.data       178118                       # number of overall misses
system.cpu.dcache.overall_misses::total        178118                       # number of overall misses
system.cpu.dcache.demand_miss_latency::.cpu.data   6867571996                       # number of demand (read+write) miss cycles
system.cpu.dcache.demand_miss_latency::total   6867571996                       # number of demand (read+write) miss cycles
system.cpu.dcache.overall_miss_latency::.cpu.data   6867571996                       # number of overall miss cycles
system.cpu.dcache.overall_miss_latency::total   6867571996                       # number of overall miss cycles
system.cpu.dcache.demand_accesses::.cpu.data     37146786                       # number of demand (read+write) accesses
system.cpu.dcache.demand_accesses::total     37146786                       # number of demand (read+write) accesses
system.cpu.dcache.overall_accesses::.cpu.data     37146786                       # number of overall (read+write) accesses
system.cpu.dcache.overall_accesses::total     37146786                       # number of overall (read+write) accesses
system.cpu.dcache.demand_miss_rate::.cpu.data     0.004795                       # miss rate for demand accesses
system.cpu.dcache.demand_miss_rate::total     0.004795                       # miss rate for demand accesses
system.cpu.dcache.overall_miss_rate::.cpu.data     0.004795                       # miss rate for overall accesses
system.cpu.dcache.overall_miss_rate::total     0.004795                       # miss rate for overall accesses
system.cpu.dcache.demand_avg_miss_latency::.cpu.data 38556.305348                       # average overall miss latency
system.cpu.dcache.demand_avg_miss_latency::total 38556.305348                       # average overall miss latency
system.cpu.dcache.overall_avg_miss_latency::.cpu.data 38556.305348                       # average overall miss latency
system.cpu.dcache.overall_avg_miss_latency::total 38556.305348                       # average overall miss latency
system.cpu.dcache.blocked_cycles::no_mshrs        30151                       # number of cycles access was blocked
system.cpu.dcache.blocked_cycles::no_targets          232                       # number of cycles access was blocked
system.cpu.dcache.blocked::no_mshrs               771                       # number of cycles access was blocked
system.cpu.dcache.blocked::no_targets              31                       # number of cycles access was blocked
system.cpu.dcache.avg_blocked_cycles::no_mshrs    39.106355                       # average number of cycles each access was blocked
system.cpu.dcache.avg_blocked_cycles::no_targets     7.483871                       # average number of cycles each access was blocked
system.cpu.dcache.writebacks::.writebacks        80793                       # number of writebacks
system.cpu.dcache.writebacks::total             80793                       # number of writebacks
system.cpu.dcache.demand_mshr_hits::.cpu.data        77394                       # number of demand (read+write) MSHR hits
system.cpu.dcache.demand_mshr_hits::total        77394                       # number of demand (read+write) MSHR hits
system.cpu.dcache.overall_mshr_hits::.cpu.data        77394                       # number of overall MSHR hits
system.cpu.dcache.overall_mshr_hits::total        77394                       # number of overall MSHR hits
system.cpu.dcache.demand_mshr_misses::.cpu.data       100724                       # number of demand (read+write) MSHR misses
system.cpu.dcache.demand_mshr_misses::total       100724                       # number of demand (read+write) MSHR misses
system.cpu.dcache.overall_mshr_misses::.cpu.data       100724                       # number of overall MSHR misses
system.cpu.dcache.overall_mshr_misses::total       100724                       # number of overall MSHR misses
system.cpu.dcache.demand_mshr_miss_latency::.cpu.data   4190263496                       # number of demand (read+write) MSHR miss cycles
system.cpu.dcache.demand_mshr_miss_latency::total   4190263496                       # number of demand (read+write) MSHR miss cycles
system.cpu.dcache.overall_mshr_miss_latency::.cpu.data   4190263496                       # number of overall MSHR miss cycles
system.cpu.dcache.overall_mshr_miss_latency::total   4190263496                       # number of overall MSHR miss cycles
system.cpu.dcache.demand_mshr_miss_rate::.cpu.data     0.002712                       # mshr miss rate for demand accesses
system.cpu.dcache.demand_mshr_miss_rate::total     0.002712                       # mshr miss rate for demand accesses
system.cpu.dcache.overall_mshr_miss_rate::.cpu.data     0.002712                       # mshr miss rate for overall accesses
system.cpu.dcache.overall_mshr_miss_rate::total     0.002712                       # mshr miss rate for overall accesses
system.cpu.dcache.demand_avg_mshr_miss_latency::.cpu.data 41601.440531                       # average overall mshr miss latency
system.cpu.dcache.demand_avg_mshr_miss_latency::total 41601.440531                       # average overall mshr miss latency
system.cpu.dcache.overall_avg_mshr_miss_latency::.cpu.data 41601.440531                       # average overall mshr miss latency
system.cpu.dcache.overall_avg_mshr_miss_latency::total 41601.440531                       # average overall mshr miss latency
system.cpu.dcache.replacements                 100212                       # number of replacements
system.cpu.dcache.ReadReq_hits::.cpu.data     23672390                       # number of ReadReq hits
system.cpu.dcache.ReadReq_hits::total        23672390                       # number of ReadReq hits
system.cpu.dcache.ReadReq_misses::.cpu.data       136722                       # number of ReadReq misses
system.cpu.dcache.ReadReq_misses::total        136722                       # number of ReadReq misses
system.cpu.dcache.ReadReq_miss_latency::.cpu.data   3938958000                       # number of ReadReq miss cycles
system.cpu.dcache.ReadReq_miss_latency::total   3938958000                       # number of ReadReq miss cycles
system.cpu.dcache.ReadReq_accesses::.cpu.data     23809112                       # number of ReadReq accesses(hits+misses)
system.cpu.dcache.ReadReq_accesses::total     23809112                       # number of ReadReq accesses(hits+misses)
system.cpu.dcache.ReadReq_miss_rate::.cpu.data     0.005742                       # miss rate for ReadReq accesses
system.cpu.dcache.ReadReq_miss_rate::total     0.005742                       # miss rate for ReadReq accesses
system.cpu.dcache.ReadReq_avg_miss_latency::.cpu.data 28809.979374                       # average ReadReq miss latency
system.cpu.dcache.ReadReq_avg_miss_latency::total 28809.979374                       # average ReadReq miss latency
system.cpu.dcache.ReadReq_mshr_hits::.cpu.data        77386                       # number of ReadReq MSHR hits
system.cpu.dcache.ReadReq_mshr_hits::total        77386                       # number of ReadReq MSHR hits
system.cpu.dcache.ReadReq_mshr_misses::.cpu.data        59336                       # number of ReadReq MSHR misses
system.cpu.dcache.ReadReq_mshr_misses::total        59336                       # number of ReadReq MSHR misses
system.cpu.dcache.ReadReq_mshr_miss_latency::.cpu.data   1303313500                       # number of ReadReq MSHR miss cycles
system.cpu.dcache.ReadReq_mshr_miss_latency::total   1303313500                       # number of ReadReq MSHR miss cycles
system.cpu.dcache.ReadReq_mshr_miss_rate::.cpu.data     0.002492                       # mshr miss rate for ReadReq accesses
system.cpu.dcache.ReadReq_mshr_miss_rate::total     0.002492                       # mshr miss rate for ReadReq accesses
system.cpu.dcache.ReadReq_avg_mshr_miss_latency::.cpu.data 21964.970675                       # average ReadReq mshr miss latency
system.cpu.dcache.ReadReq_avg_mshr_miss_latency::total 21964.970675                       # average ReadReq mshr miss latency
system.cpu.dcache.WriteReq_hits::.cpu.data     13296278                       # number of WriteReq hits
system.cpu.dcache.WriteReq_hits::total       13296278                       # number of WriteReq hits
system.cpu.dcache.WriteReq_misses::.cpu.data        41396                       # number of WriteReq misses
system.cpu.dcache.WriteReq_misses::total        41396                       # number of WriteReq misses
system.cpu.dcache.WriteReq_miss_latency::.cpu.data   2928613996                       # number of WriteReq miss cycles
system.cpu.dcache.WriteReq_miss_latency::total   2928613996                       # number of WriteReq miss cycles
system.cpu.dcache.WriteReq_accesses::.cpu.data     13337674                       # number of WriteReq accesses(hits+misses)
system.cpu.dcache.WriteReq_accesses::total     13337674                       # number of WriteReq accesses(hits+misses)
system.cpu.dcache.WriteReq_miss_rate::.cpu.data     0.003104                       # miss rate for WriteReq accesses
system.cpu.dcache.WriteReq_miss_rate::total     0.003104                       # miss rate for WriteReq accesses
system.cpu.dcache.WriteReq_avg_miss_latency::.cpu.data 70746.303894                       # average WriteReq miss latency
system.cpu.dcache.WriteReq_avg_miss_latency::total 70746.303894                       # average WriteReq miss latency
system.cpu.dcache.WriteReq_mshr_hits::.cpu.data            8                       # number of WriteReq MSHR hits
system.cpu.dcache.WriteReq_mshr_hits::total            8                       # number of WriteReq MSHR hits
system.cpu.dcache.WriteReq_mshr_misses::.cpu.data        41388                       # number of WriteReq MSHR misses
system.cpu.dcache.WriteReq_mshr_misses::total        41388                       # number of WriteReq MSHR misses
system.cpu.dcache.WriteReq_mshr_miss_latency::.cpu.data   2886949996                       # number of WriteReq MSHR miss cycles
system.cpu.dcache.WriteReq_mshr_miss_latency::total   2886949996                       # number of WriteReq MSHR miss cycles
system.cpu.dcache.WriteReq_mshr_miss_rate::.cpu.data     0.003103                       # mshr miss rate for WriteReq accesses
system.cpu.dcache.WriteReq_mshr_miss_rate::total     0.003103                       # mshr miss rate for WriteReq accesses
system.cpu.dcache.WriteReq_avg_mshr_miss_latency::.cpu.data 69753.310042                       # average WriteReq mshr miss latency
system.cpu.dcache.WriteReq_avg_mshr_miss_latency::total 69753.310042                       # average WriteReq mshr miss latency
system.cpu.dcache.power_state.pwrStateResidencyTicks::UNDEFINED  39908008500                       # Cumulative time (in ticks) in various power states
system.cpu.dcache.tags.tagsinuse           511.571279                       # Cycle average of tags in use
system.cpu.dcache.tags.total_refs            37069392                       # Total number of references to valid blocks.
system.cpu.dcache.tags.sampled_refs            100724                       # Sample count of references to valid blocks.
system.cpu.dcache.tags.avg_refs            368.029387                       # Average number of references to valid blocks.
system.cpu.dcache.tags.warmup_cycle            163000                       # Cycle when the warmup percentage was hit.
system.cpu.dcache.tags.occ_blocks::.cpu.data   511.571279                       # Average occupied blocks per requestor
system.cpu.dcache.tags.occ_percent::.cpu.data     0.999163                       # Average percentage of cache occupancy
system.cpu.dcache.tags.occ_percent::total     0.999163                       # Average percentage of cache occupancy
system.cpu.dcache.tags.occ_task_id_blocks::1024          512                       # Occupied blocks per task id
system.cpu.dcache.tags.age_task_id_blocks_1024::0            2                       # Occupied blocks per task id
system.cpu.dcache.tags.age_task_id_blocks_1024::1            8                       # Occupied blocks per task id
system.cpu.dcache.tags.age_task_id_blocks_1024::2           88                       # Occupied blocks per task id
system.cpu.dcache.tags.age_task_id_blocks_1024::3          357                       # Occupied blocks per task id
system.cpu.dcache.tags.age_task_id_blocks_1024::4           57                       # Occupied blocks per task id
system.cpu.dcache.tags.occ_task_id_percent::1024            1                       # Percentage of cache occupancy per task id
system.cpu.dcache.tags.tag_accesses          74394296                       # Number of tag accesses
system.cpu.dcache.tags.data_accesses         74394296                       # Number of data accesses
system.cpu.dcache.tags.power_state.pwrStateResidencyTicks::UNDEFINED  39908008500                       # Cumulative time (in ticks) in various power states
system.cpu.decode.idleCycles                 11901311                       # Number of cycles decode is idle
system.cpu.decode.blockedCycles              32011555                       # Number of cycles decode is blocked
system.cpu.decode.runCycles                  26296647                       # Number of cycles decode is running
system.cpu.decode.unblockCycles               8177061                       # Number of cycles decode is unblocking
system.cpu.decode.squashCycles                1293956                       # Number of cycles decode is squashing
system.cpu.decode.branchResolved             13721715                       # Number of times decode resolved a  branch
system.cpu.decode.branchMispred                  1764                       # Number of times decode detected a branch misprediction
system.cpu.decode.decodedInsts              251043269                       # Number of instructions handled by decode
system.cpu.decode.squashedInsts                  8428                       # Number of squashed instructions handled by decode
system.cpu.dtb.rdAccesses                    34493392                       # TLB accesses on read requests
system.cpu.dtb.wrAccesses                    13906353                       # TLB accesses on write requests
system.cpu.dtb.rdMisses                          4790                       # TLB misses on read requests
system.cpu.dtb.wrMisses                         16754                       # TLB misses on write requests
system.cpu.dtb.walker.power_state.pwrStateResidencyTicks::UNDEFINED  39908008500                       # Cumulative time (in ticks) in various power states
system.cpu.dtb_walker_cache.blocked_cycles::no_mshrs            0                       # number of cycles access was blocked
system.cpu.dtb_walker_cache.blocked_cycles::no_targets            0                       # number of cycles access was blocked
system.cpu.dtb_walker_cache.blocked::no_mshrs            0                       # number of cycles access was blocked
system.cpu.dtb_walker_cache.blocked::no_targets            0                       # number of cycles access was blocked
system.cpu.dtb_walker_cache.avg_blocked_cycles::no_mshrs          nan                       # average number of cycles each access was blocked
system.cpu.dtb_walker_cache.avg_blocked_cycles::no_targets          nan                       # average number of cycles each access was blocked
system.cpu.dtb_walker_cache.replacements            0                       # number of replacements
system.cpu.dtb_walker_cache.power_state.pwrStateResidencyTicks::UNDEFINED  39908008500                       # Cumulative time (in ticks) in various power states
system.cpu.dtb_walker_cache.tags.tagsinuse            0                       # Cycle average of tags in use
system.cpu.dtb_walker_cache.tags.total_refs            0                       # Total number of references to valid blocks.
system.cpu.dtb_walker_cache.tags.sampled_refs            0                       # Sample count of references to valid blocks.
system.cpu.dtb_walker_cache.tags.avg_refs          nan                       # Average number of references to valid blocks.
system.cpu.dtb_walker_cache.tags.warmup_cycle            0                       # Cycle when the warmup percentage was hit.
system.cpu.dtb_walker_cache.tags.tag_accesses            0                       # Number of tag accesses
system.cpu.dtb_walker_cache.tags.data_accesses            0                       # Number of data accesses
system.cpu.dtb_walker_cache.tags.power_state.pwrStateResidencyTicks::UNDEFINED  39908008500                       # Cumulative time (in ticks) in various power states
system.cpu.fetch.icacheStallCycles           12058753                       # Number of cycles fetch is stalled on an Icache miss
system.cpu.fetch.insts                      158040811                       # Number of instructions fetch has processed
system.cpu.fetch.branches                    29846800                       # Number of branches that fetch encountered
system.cpu.fetch.predictedBranches           17179403                       # Number of branches that fetch has predicted taken
system.cpu.fetch.cycles                      66319508                       # Number of cycles fetch has run and was not squashing or blocked
system.cpu.fetch.squashCycles                 2591356                       # Number of cycles fetch has spent squashing
system.cpu.fetch.miscStallCycles                  830                       # Number of cycles fetch has spent waiting on interrupts,or bad addresses, or out of MSHRs
system.cpu.fetch.pendingTrapStallCycles          5708                       # Number of stall cycles due to pending traps
system.cpu.fetch.pendingQuiesceStallCycles           26                       # Number of stall cycles due to pending quiesce instructions
system.cpu.fetch.icacheWaitRetryStallCycles           27                       # Number of stall cycles due to full MSHR
system.cpu.fetch.cacheLines                  11517188                       # Number of cache lines fetched
system.cpu.fetch.icacheSquashes                176394                       # Number of outstanding Icache misses that were squashed
system.cpu.fetch.nisnDist::samples           79680530                       # Number of instructions fetched each cycle (Total)
system.cpu.fetch.nisnDist::mean              3.318305                       # Number of instructions fetched each cycle (Total)
system.cpu.fetch.nisnDist::stdev             3.488492                       # Number of instructions fetched each cycle (Total)
system.cpu.fetch.nisnDist::underflows               0      0.00%      0.00% # Number of instructions fetched each cycle (Total)
system.cpu.fetch.nisnDist::0                 35462720     44.51%     44.51% # Number of instructions fetched each cycle (Total)
system.cpu.fetch.nisnDist::1                  1392061      1.75%     46.25% # Number of instructions fetched each cycle (Total)
system.cpu.fetch.nisnDist::2                  5827062      7.31%     53.57% # Number of instructions fetched each cycle (Total)
system.cpu.fetch.nisnDist::3                  3811930      4.78%     58.35% # Number of instructions fetched each cycle (Total)
system.cpu.fetch.nisnDist::4                  1946041      2.44%     60.79% # Number of instructions fetched each cycle (Total)
system.cpu.fetch.nisnDist::5                  2623536      3.29%     64.09% # Number of instructions fetched each cycle (Total)
system.cpu.fetch.nisnDist::6                  4287334      5.38%     69.47% # Number of instructions fetched each cycle (Total)
system.cpu.fetch.nisnDist::7                  1342284      1.68%     71.15% # Number of instructions fetched each cycle (Total)
system.cpu.fetch.nisnDist::8                 22987562     28.85%    100.00% # Number of instructions fetched each cycle (Total)
system.cpu.fetch.nisnDist::overflows                0      0.00%    100.00% # Number of instructions fetched each cycle (Total)
system.cpu.fetch.nisnDist::min_value                0                       # Number of instructions fetched each cycle (Total)
system.cpu.fetch.nisnDist::max_value                8                       # Number of instructions fetched each cycle (Total)
system.cpu.fetch.nisnDist::total             79680530                       # Number of instructions fetched each cycle (Total)
system.cpu.fetch.branchRate                  0.373945                       # Number of branch fetches per cycle
system.cpu.fetch.rate                        1.980064                       # Number of inst fetches per cycle
system.cpu.icache.demand_hits::.cpu.inst     11514009                       # number of demand (read+write) hits
system.cpu.icache.demand_hits::total         11514009                       # number of demand (read+write) hits
system.cpu.icache.overall_hits::.cpu.inst     11514009                       # number of overall hits
system.cpu.icache.overall_hits::total        11514009                       # number of overall hits
system.cpu.icache.demand_misses::.cpu.inst         3179                       # number of demand (read+write) misses
system.cpu.icache.demand_misses::total           3179                       # number of demand (read+write) misses
system.cpu.icache.overall_misses::.cpu.inst         3179                       # number of overall misses
system.cpu.icache.overall_misses::total          3179                       # number of overall misses
system.cpu.icache.demand_miss_latency::.cpu.inst    197775500                       # number of demand (read+write) miss cycles
system.cpu.icache.demand_miss_latency::total    197775500                       # number of demand (read+write) miss cycles
system.cpu.icache.overall_miss_latency::.cpu.inst    197775500                       # number of overall miss cycles
system.cpu.icache.overall_miss_latency::total    197775500                       # number of overall miss cycles
system.cpu.icache.demand_accesses::.cpu.inst     11517188                       # number of demand (read+write) accesses
system.cpu.icache.demand_accesses::total     11517188                       # number of demand (read+write) accesses
system.cpu.icache.overall_accesses::.cpu.inst     11517188                       # number of overall (read+write) accesses
system.cpu.icache.overall_accesses::total     11517188                       # number of overall (read+write) accesses
system.cpu.icache.demand_miss_rate::.cpu.inst     0.000276                       # miss rate for demand accesses
system.cpu.icache.demand_miss_rate::total     0.000276                       # miss rate for demand accesses
system.cpu.icache.overall_miss_rate::.cpu.inst     0.000276                       # miss rate for overall accesses
system.cpu.icache.overall_miss_rate::total     0.000276                       # miss rate for overall accesses
system.cpu.icache.demand_avg_miss_latency::.cpu.inst 62213.117332                       # average overall miss latency
system.cpu.icache.demand_avg_miss_latency::total 62213.117332                       # average overall miss latency
system.cpu.icache.overall_avg_miss_latency::.cpu.inst 62213.117332                       # average overall miss latency
system.cpu.icache.overall_avg_miss_latency::total 62213.117332                       # average overall miss latency
system.cpu.icache.blocked_cycles::no_mshrs          246                       # number of cycles access was blocked
system.cpu.icache.blocked_cycles::no_targets            0                       # number of cycles access was blocked
system.cpu.icache.blocked::no_mshrs                 6                       # number of cycles access was blocked
system.cpu.icache.blocked::no_targets               0                       # number of cycles access was blocked
system.cpu.icache.avg_blocked_cycles::no_mshrs           41                       # average number of cycles each access was blocked
system.cpu.icache.avg_blocked_cycles::no_targets          nan                       # average number of cycles each access was blocked
system.cpu.icache.writebacks::.writebacks         2022                       # number of writebacks
system.cpu.icache.writebacks::total              2022                       # number of writebacks
system.cpu.icache.demand_mshr_hits::.cpu.inst          644                       # number of demand (read+write) MSHR hits
system.cpu.icache.demand_mshr_hits::total          644                       # number of demand (read+write) MSHR hits
system.cpu.icache.overall_mshr_hits::.cpu.inst          644                       # number of overall MSHR hits
system.cpu.icache.overall_mshr_hits::total          644                       # number of overall MSHR hits
system.cpu.icache.demand_mshr_misses::.cpu.inst         2535                       # number of demand (read+write) MSHR misses
system.cpu.icache.demand_mshr_misses::total         2535                       # number of demand (read+write) MSHR misses
system.cpu.icache.overall_mshr_misses::.cpu.inst         2535                       # number of overall MSHR misses
system.cpu.icache.overall_mshr_misses::total         2535                       # number of overall MSHR misses
system.cpu.icache.demand_mshr_miss_latency::.cpu.inst    159168000                       # number of demand (read+write) MSHR miss cycles
system.cpu.icache.demand_mshr_miss_latency::total    159168000                       # number of demand (read+write) MSHR miss cycles
system.cpu.icache.overall_mshr_miss_latency::.cpu.inst    159168000                       # number of overall MSHR miss cycles
system.cpu.icache.overall_mshr_miss_latency::total    159168000                       # number of overall MSHR miss cycles
system.cpu.icache.demand_mshr_miss_rate::.cpu.inst     0.000220                       # mshr miss rate for demand accesses
system.cpu.icache.demand_mshr_miss_rate::total     0.000220                       # mshr miss rate for demand accesses
system.cpu.icache.overall_mshr_miss_rate::.cpu.inst     0.000220                       # mshr miss rate for overall accesses
system.cpu.icache.overall_mshr_miss_rate::total     0.000220                       # mshr miss rate for overall accesses
system.cpu.icache.demand_avg_mshr_miss_latency::.cpu.inst 62788.165680                       # average overall mshr miss latency
system.cpu.icache.demand_avg_mshr_miss_latency::total 62788.165680                       # average overall mshr miss latency
system.cpu.icache.overall_avg_mshr_miss_latency::.cpu.inst 62788.165680                       # average overall mshr miss latency
system.cpu.icache.overall_avg_mshr_miss_latency::total 62788.165680                       # average overall mshr miss latency
system.cpu.icache.replacements                   2022                       # number of replacements
system.cpu.icache.ReadReq_hits::.cpu.inst     11514009                       # number of ReadReq hits
system.cpu.icache.ReadReq_hits::total        11514009                       # number of ReadReq hits
system.cpu.icache.ReadReq_misses::.cpu.inst         3179                       # number of ReadReq misses
system.cpu.icache.ReadReq_misses::total          3179                       # number of ReadReq misses
system.cpu.icache.ReadReq_miss_latency::.cpu.inst    197775500                       # number of ReadReq miss cycles
system.cpu.icache.ReadReq_miss_latency::total    197775500                       # number of ReadReq miss cycles
system.cpu.icache.ReadReq_accesses::.cpu.inst     11517188                       # number of ReadReq accesses(hits+misses)
system.cpu.icache.ReadReq_accesses::total     11517188                       # number of ReadReq accesses(hits+misses)
system.cpu.icache.ReadReq_miss_rate::.cpu.inst     0.000276                       # miss rate for ReadReq accesses
system.cpu.icache.ReadReq_miss_rate::total     0.000276                       # miss rate for ReadReq accesses
system.cpu.icache.ReadReq_avg_miss_latency::.cpu.inst 62213.117332                       # average ReadReq miss latency
system.cpu.icache.ReadReq_avg_miss_latency::total 62213.117332                       # average ReadReq miss latency
system.cpu.icache.ReadReq_mshr_hits::.cpu.inst          644                       # number of ReadReq MSHR hits
system.cpu.icache.ReadReq_mshr_hits::total          644                       # number of ReadReq MSHR hits
system.cpu.icache.ReadReq_mshr_misses::.cpu.inst         2535                       # number of ReadReq MSHR misses
system.cpu.icache.ReadReq_mshr_misses::total         2535                       # number of ReadReq MSHR misses
system.cpu.icache.ReadReq_mshr_miss_latency::.cpu.inst    159168000                       # number of ReadReq MSHR miss cycles
system.cpu.icache.ReadReq_mshr_miss_latency::total    159168000                       # number of ReadReq MSHR miss cycles
system.cpu.icache.ReadReq_mshr_miss_rate::.cpu.inst     0.000220                       # mshr miss rate for ReadReq accesses
system.cpu.icache.ReadReq_mshr_miss_rate::total     0.000220                       # mshr miss rate for ReadReq accesses
system.cpu.icache.ReadReq_avg_mshr_miss_latency::.cpu.inst 62788.165680                       # average ReadReq mshr miss latency
system.cpu.icache.ReadReq_avg_mshr_miss_latency::total 62788.165680                       # average ReadReq mshr miss latency
system.cpu.icache.power_state.pwrStateResidencyTicks::UNDEFINED  39908008500                       # Cumulative time (in ticks) in various power states
system.cpu.icache.tags.tagsinuse           508.837777                       # Cycle average of tags in use
system.cpu.icache.tags.total_refs            11516544                       # Total number of references to valid blocks.
system.cpu.icache.tags.sampled_refs              2535                       # Sample count of references to valid blocks.
system.cpu.icache.tags.avg_refs           4543.015385                       # Average number of references to valid blocks.
system.cpu.icache.tags.warmup_cycle             79500                       # Cycle when the warmup percentage was hit.
system.cpu.icache.tags.occ_blocks::.cpu.inst   508.837777                       # Average occupied blocks per requestor
system.cpu.icache.tags.occ_percent::.cpu.inst     0.993824                       # Average percentage of cache occupancy
system.cpu.icache.tags.occ_percent::total     0.993824                       # Average percentage of cache occupancy
system.cpu.icache.tags.occ_task_id_blocks::1024          510                       # Occupied blocks per task id
system.cpu.icache.tags.age_task_id_blocks_1024::4          510                       # Occupied blocks per task id
system.cpu.icache.tags.occ_task_id_percent::1024     0.996094                       # Percentage of cache occupancy per task id
system.cpu.icache.tags.tag_accesses          23036911                       # Number of tag accesses
system.cpu.icache.tags.data_accesses         23036911                       # Number of data accesses
system.cpu.icache.tags.power_state.pwrStateResidencyTicks::UNDEFINED  39908008500                       # Cumulative time (in ticks) in various power states
system.cpu.interrupts.clk_domain.clock           8000                       # Clock period in ticks
system.cpu.itb.rdAccesses                           0                       # TLB accesses on read requests
system.cpu.itb.wrAccesses                    11518066                       # TLB accesses on write requests
system.cpu.itb.rdMisses                             0                       # TLB misses on read requests
system.cpu.itb.wrMisses                          1198                       # TLB misses on write requests
system.cpu.itb.walker.power_state.pwrStateResidencyTicks::UNDEFINED  39908008500                       # Cumulative time (in ticks) in various power states
system.cpu.itb_walker_cache.blocked_cycles::no_mshrs            0                       # number of cycles access was blocked
system.cpu.itb_walker_cache.blocked_cycles::no_targets            0                       # number of cycles access was blocked
system.cpu.itb_walker_cache.blocked::no_mshrs            0                       # number of cycles access was blocked
system.cpu.itb_walker_cache.blocked::no_targets            0                       # number of cycles access was blocked
system.cpu.itb_walker_cache.avg_blocked_cycles::no_mshrs          nan                       # average number of cycles each access was blocked
system.cpu.itb_walker_cache.avg_blocked_cycles::no_targets          nan                       # average number of cycles each access was blocked
system.cpu.itb_walker_cache.replacements            0                       # number of replacements
system.cpu.itb_walker_cache.power_state.pwrStateResidencyTicks::UNDEFINED  39908008500                       # Cumulative time (in ticks) in various power states
system.cpu.itb_walker_cache.tags.tagsinuse            0                       # Cycle average of tags in use
system.cpu.itb_walker_cache.tags.total_refs            0                       # Total number of references to valid blocks.
system.cpu.itb_walker_cache.tags.sampled_refs            0                       # Sample count of references to valid blocks.
system.cpu.itb_walker_cache.tags.avg_refs          nan                       # Average number of references to valid blocks.
system.cpu.itb_walker_cache.tags.warmup_cycle            0                       # Cycle when the warmup percentage was hit.
system.cpu.itb_walker_cache.tags.tag_accesses            0                       # Number of tag accesses
system.cpu.itb_walker_cache.tags.data_accesses            0                       # Number of data accesses
system.cpu.itb_walker_cache.tags.power_state.pwrStateResidencyTicks::UNDEFINED  39908008500                       # Cumulative time (in ticks) in various power states
system.cpu.lsq0.forwLoads                    10680878                       # Number of loads that had data forwarded from stores
system.cpu.lsq0.squashedLoads                13446928                       # Number of loads squashed
system.cpu.lsq0.ignoredResponses                21451                       # Number of memory responses ignored because the instruction is squashed
system.cpu.lsq0.memOrderViolation                1994                       # Number of memory ordering violations
system.cpu.lsq0.squashedStores                 968741                       # Number of stores squashed
system.cpu.lsq0.rescheduledLoads                    9                       # Number of loads that were rescheduled
system.cpu.lsq0.blockedByCache                    612                       # Number of times an access to memory failed due to the cache being blocked
system.cpu.power_state.pwrStateResidencyTicks::ON  39908008500                       # Cumulative time (in ticks) in various power states
system.cpu.rename.squashCycles                1293956                       # Number of cycles rename is squashing
system.cpu.rename.idleCycles                 15446351                       # Number of cycles rename is idle
system.cpu.rename.blockCycles                12161845                       # Number of cycles rename is blocking
system.cpu.rename.serializeStallCycles          12907                       # count of cycles rename stalledfor serializing inst
system.cpu.rename.runCycles                  30277737                       # Number of cycles rename is running
system.cpu.rename.unblockCycles              20487734                       # Number of cycles rename is unblocking
system.cpu.rename.renamedInsts              242977661                       # Number of instructions processed by rename
system.cpu.rename.ROBFullEvents                 12608                       # Number of times rename has blocked due to ROB full
system.cpu.rename.IQFullEvents                7206214                       # Number of times rename has blocked due to IQ full
system.cpu.rename.LQFullEvents                9737832                       # Number of times rename has blocked due to LQ full
system.cpu.rename.SQFullEvents                3750201                       # Number of times rename has blocked due to SQ full
system.cpu.rename.fullRegistersEvents             108                       # Number of times there has been no free registers
system.cpu.rename.renamedOperands           314556478                       # Number of destination operands rename has renamed
system.cpu.rename.lookups                   671257923                       # Number of register rename lookups that rename has made
system.cpu.rename.intLookups                391031367                       # Number of integer rename lookups
system.cpu.rename.fpLookups                   7710427                       # Number of floating rename lookups
system.cpu.rename.committedMaps             211750085                       # Number of HB maps that are committed
system.cpu.rename.undoneMaps                102806221                       # Number of HB maps that are undone due to squashing
system.cpu.rename.serializing                     740                       # count of serializing insts renamed
system.cpu.rename.tempSerializing                 720                       # count of temporary serializing insts renamed
system.cpu.rename.skidInsts                  39297179                       # count of insts added to the skid buffer
system.cpu.rob.reads                        292780573                       # The number of ROB reads
system.cpu.rob.writes                       466120987                       # The number of ROB writes
system.cpu.thread_0.numInsts                100000000                       # Number of Instructions committed
system.cpu.thread_0.numOps                  155128130                       # Number of Ops committed
system.cpu.thread_0.numMemRefs                      0                       # Number of Memory References
system.cpu_clk_domain.clock                       500                       # Clock period in ticks
system.cpu_voltage_domain.voltage                   1                       # Voltage in Volts
system.l2.demand_hits::.cpu.inst                  446                       # number of demand (read+write) hits
system.l2.demand_hits::.cpu.data                52776                       # number of demand (read+write) hits
system.l2.demand_hits::total                    53222                       # number of demand (read+write) hits
system.l2.overall_hits::.cpu.inst                 446                       # number of overall hits
system.l2.overall_hits::.cpu.data               52776                       # number of overall hits
system.l2.overall_hits::total                   53222                       # number of overall hits
system.l2.demand_misses::.cpu.inst               2087                       # number of demand (read+write) misses
system.l2.demand_misses::.cpu.data              47948                       # number of demand (read+write) misses
system.l2.demand_misses::total                  50035                       # number of demand (read+write) misses
system.l2.overall_misses::.cpu.inst              2087                       # number of overall misses
system.l2.overall_misses::.cpu.data             47948                       # number of overall misses
system.l2.overall_misses::total                 50035                       # number of overall misses
system.l2.demand_miss_latency::.cpu.inst    150475500                       # number of demand (read+write) miss cycles
system.l2.demand_miss_latency::.cpu.data   3474342500                       # number of demand (read+write) miss cycles
system.l2.demand_miss_latency::total       3624818000                       # number of demand (read+write) miss cycles
system.l2.overall_miss_latency::.cpu.inst    150475500                       # number of overall miss cycles
system.l2.overall_miss_latency::.cpu.data   3474342500                       # number of overall miss cycles
system.l2.overall_miss_latency::total      3624818000                       # number of overall miss cycles
system.l2.demand_accesses::.cpu.inst             2533                       # number of demand (read+write) accesses
system.l2.demand_accesses::.cpu.data           100724                       # number of demand (read+write) accesses
system.l2.demand_accesses::total               103257                       # number of demand (read+write) accesses
system.l2.overall_accesses::.cpu.inst            2533                       # number of overall (read+write) accesses
system.l2.overall_accesses::.cpu.data          100724                       # number of overall (read+write) accesses
system.l2.overall_accesses::total              103257                       # number of overall (read+write) accesses
system.l2.demand_miss_rate::.cpu.inst        0.823924                       # miss rate for demand accesses
system.l2.demand_miss_rate::.cpu.data        0.476034                       # miss rate for demand accesses
system.l2.demand_miss_rate::total            0.484568                       # miss rate for demand accesses
system.l2.overall_miss_rate::.cpu.inst       0.823924                       # miss rate for overall accesses
system.l2.overall_miss_rate::.cpu.data       0.476034                       # miss rate for overall accesses
system.l2.overall_miss_rate::total           0.484568                       # miss rate for overall accesses
system.l2.demand_avg_miss_latency::.cpu.inst 72101.341639                       # average overall miss latency
system.l2.demand_avg_miss_latency::.cpu.data 72460.634437                       # average overall miss latency
system.l2.demand_avg_miss_latency::total 72445.648046                       # average overall miss latency
system.l2.overall_avg_miss_latency::.cpu.inst 72101.341639                       # average overall miss latency
system.l2.overall_avg_miss_latency::.cpu.data 72460.634437                       # average overall miss latency
[...]
system.mem_ctrls.dram.bw_total::.cpu.data     76893639                       # Total bandwidth to/from this memory (bytes/s)
system.mem_ctrls.dram.bw_total::total       130413523                       # Total bandwidth to/from this memory (bytes/s)
system.mem_ctrls.dram.readBursts                50030                       # Number of DRAM read bursts
system.mem_ctrls.dram.writeBursts               31271                       # Number of DRAM write bursts
system.mem_ctrls.dram.perBankRdBursts::0         3358                       # Per bank write bursts
system.mem_ctrls.dram.perBankRdBursts::1         3410                       # Per bank write bursts
system.mem_ctrls.dram.perBankRdBursts::2         3244                       # Per bank write bursts
system.mem_ctrls.dram.perBankRdBursts::3         3259                       # Per bank write bursts
system.mem_ctrls.dram.perBankRdBursts::4         3230                       # Per bank write bursts
system.mem_ctrls.dram.perBankRdBursts::5         3323                       # Per bank write bursts
system.mem_ctrls.dram.perBankRdBursts::6         3318                       # Per bank write bursts
system.mem_ctrls.dram.perBankRdBursts::7         3098                       # Per bank write bursts
system.mem_ctrls.dram.perBankRdBursts::8         3169                       # Per bank write bursts
system.mem_ctrls.dram.perBankRdBursts::9         3049                       # Per bank write bursts
system.mem_ctrls.dram.perBankRdBursts::10         3151                       # Per bank write bursts
system.mem_ctrls.dram.perBankRdBursts::11         3136                       # Per bank write bursts
system.mem_ctrls.dram.perBankRdBursts::12         3032                       # Per bank write bursts
system.mem_ctrls.dram.perBankRdBursts::13         2715                       # Per bank write bursts
system.mem_ctrls.dram.perBankRdBursts::14         2859                       # Per bank write bursts
system.mem_ctrls.dram.perBankRdBursts::15         2679                       # Per bank write bursts
system.mem_ctrls.dram.perBankWrBursts::0         2025                       # Per bank write bursts
system.mem_ctrls.dram.perBankWrBursts::1         2289                       # Per bank write bursts
system.mem_ctrls.dram.perBankWrBursts::2         2133                       # Per bank write bursts
system.mem_ctrls.dram.perBankWrBursts::3         2113                       # Per bank write bursts
system.mem_ctrls.dram.perBankWrBursts::4         1979                       # Per bank write bursts
system.mem_ctrls.dram.perBankWrBursts::5         1765                       # Per bank write bursts
system.mem_ctrls.dram.perBankWrBursts::6         1861                       # Per bank write bursts
system.mem_ctrls.dram.perBankWrBursts::7         1849                       # Per bank write bursts
system.mem_ctrls.dram.perBankWrBursts::8         1987                       # Per bank write bursts
system.mem_ctrls.dram.perBankWrBursts::9         2019                       # Per bank write bursts
system.mem_ctrls.dram.perBankWrBursts::10         2067                       # Per bank write bursts
system.mem_ctrls.dram.perBankWrBursts::11         1949                       # Per bank write bursts
system.mem_ctrls.dram.perBankWrBursts::12         2009                       # Per bank write bursts
system.mem_ctrls.dram.perBankWrBursts::13         1790                       # Per bank write bursts
system.mem_ctrls.dram.perBankWrBursts::14         1807                       # Per bank write bursts
system.mem_ctrls.dram.perBankWrBursts::15         1629                       # Per bank write bursts
system.mem_ctrls.dram.totQLat               524363750                       # Total ticks spent queuing
system.mem_ctrls.dram.totBusLat             250150000                       # Total ticks spent in databus transfers
system.mem_ctrls.dram.totMemAccLat         1462426250                       # Total ticks spent from burst creation until serviced by the DRAM
system.mem_ctrls.dram.avgQLat                10480.99                       # Average queueing delay per DRAM burst
system.mem_ctrls.dram.avgBusLat               5000.00                       # Average bus latency per DRAM burst
system.mem_ctrls.dram.avgMemAccLat           29230.99                       # Average memory access latency per DRAM burst
system.mem_ctrls.dram.readRowHits               40039                       # Number of row buffer hits during reads
system.mem_ctrls.dram.writeRowHits              28252                       # Number of row buffer hits during writes
system.mem_ctrls.dram.readRowHitRate            80.03                       # Row buffer hit rate for reads
system.mem_ctrls.dram.writeRowHitRate           90.35                       # Row buffer hit rate for writes
system.mem_ctrls.dram.bytesPerActivate::samples        13008                       # Bytes accessed per row activation
system.mem_ctrls.dram.bytesPerActivate::mean   399.916359                       # Bytes accessed per row activation
system.mem_ctrls.dram.bytesPerActivate::gmean   208.237610                       # Bytes accessed per row activation
system.mem_ctrls.dram.bytesPerActivate::stdev   403.638947                       # Bytes accessed per row activation
system.mem_ctrls.dram.bytesPerActivate::0-127         5692     43.76%     43.76% # Bytes accessed per row activation
system.mem_ctrls.dram.bytesPerActivate::128-255         1563     12.02%     55.77% # Bytes accessed per row activation
system.mem_ctrls.dram.bytesPerActivate::256-383          662      5.09%     60.86% # Bytes accessed per row activation
system.mem_ctrls.dram.bytesPerActivate::384-511          508      3.91%     64.77% # Bytes accessed per row activation
system.mem_ctrls.dram.bytesPerActivate::512-639          627      4.82%     69.59% # Bytes accessed per row activation
system.mem_ctrls.dram.bytesPerActivate::640-767          295      2.27%     71.86% # Bytes accessed per row activation
system.mem_ctrls.dram.bytesPerActivate::768-895          275      2.11%     73.97% # Bytes accessed per row activation
system.mem_ctrls.dram.bytesPerActivate::896-1023          269      2.07%     76.04% # Bytes accessed per row activation
system.mem_ctrls.dram.bytesPerActivate::1024-1151         3117     23.96%    100.00% # Bytes accessed per row activation
system.mem_ctrls.dram.bytesPerActivate::total        13008                       # Bytes accessed per row activation
system.mem_ctrls.dram.bytesRead               3201920                       # Total number of bytes read from DRAM
system.mem_ctrls.dram.bytesWritten            2001344                       # Total number of bytes written to DRAM
system.mem_ctrls.dram.avgRdBW               80.232518                       # Average DRAM read bandwidth in MiBytes/s
system.mem_ctrls.dram.avgWrBW               50.148932                       # Average DRAM write bandwidth in MiBytes/s
system.mem_ctrls.dram.peakBW                 12800.00                       # Theoretical peak bandwidth in MiByte/s
system.mem_ctrls.dram.busUtil                    1.02                       # Data bus utilization in percentage
system.mem_ctrls.dram.busUtilRead                0.63                       # Data bus utilization in percentage for reads
system.mem_ctrls.dram.busUtilWrite               0.39                       # Data bus utilization in percentage for writes
system.mem_ctrls.dram.pageHitRate               84.00                       # Row buffer hit rate, read and write combined
system.mem_ctrls.dram.power_state.pwrStateResidencyTicks::UNDEFINED  39908008500                       # Cumulative time (in ticks) in various power states
system.mem_ctrls.dram.rank0.actEnergy        50458380                       # Energy for activate commands per rank (pJ)
system.mem_ctrls.dram.rank0.preEnergy        26815470                       # Energy for precharge commands per rank (pJ)
system.mem_ctrls.dram.rank0.readEnergy      187353600                       # Energy for read commands per rank (pJ)
system.mem_ctrls.dram.rank0.writeEnergy      83593080                       # Energy for write commands per rank (pJ)
system.mem_ctrls.dram.rank0.refreshEnergy 3150030000.000000                       # Energy for refresh commands per rank (pJ)
system.mem_ctrls.dram.rank0.actBackEnergy   3911939640                       # Energy for active background per rank (pJ)
system.mem_ctrls.dram.rank0.preBackEnergy  12030410400                       # Energy for precharge background per rank (pJ)
system.mem_ctrls.dram.rank0.actPowerDownEnergy            0                       # Energy for active power-down per rank (pJ)
system.mem_ctrls.dram.rank0.prePowerDownEnergy            0                       # Energy for precharge power-down per rank (pJ)
system.mem_ctrls.dram.rank0.selfRefreshEnergy            0                       # Energy for self refresh per rank (pJ)
system.mem_ctrls.dram.rank0.totalEnergy   19440600570                       # Total energy per rank (pJ)
system.mem_ctrls.dram.rank0.averagePower   487.135322                       # Core power per rank (mW)
system.mem_ctrls.dram.rank0.totalIdleTime            0                       # Total Idle time Per DRAM Rank
system.mem_ctrls.dram.rank0.pwrStateTime::IDLE  31214166250                       # Time in different power states
system.mem_ctrls.dram.rank0.pwrStateTime::REF   1332500000                       # Time in different power states
system.mem_ctrls.dram.rank0.pwrStateTime::SREF            0                       # Time in different power states
system.mem_ctrls.dram.rank0.pwrStateTime::PRE_PDN            0                       # Time in different power states
system.mem_ctrls.dram.rank0.pwrStateTime::ACT   7361342250                       # Time in different power states
system.mem_ctrls.dram.rank0.pwrStateTime::ACT_PDN            0                       # Time in different power states
system.mem_ctrls.dram.rank1.actEnergy        42433020                       # Energy for activate commands per rank (pJ)
system.mem_ctrls.dram.rank1.preEnergy        22549890                       # Energy for precharge commands per rank (pJ)
system.mem_ctrls.dram.rank1.readEnergy      169860600                       # Energy for read commands per rank (pJ)
system.mem_ctrls.dram.rank1.writeEnergy      79641540                       # Energy for write commands per rank (pJ)
system.mem_ctrls.dram.rank1.refreshEnergy 3150030000.000000                       # Energy for refresh commands per rank (pJ)
system.mem_ctrls.dram.rank1.actBackEnergy   3264336420                       # Energy for active background per rank (pJ)
system.mem_ctrls.dram.rank1.preBackEnergy  12575760480                       # Energy for precharge background per rank (pJ)
system.mem_ctrls.dram.rank1.actPowerDownEnergy            0                       # Energy for active power-down per rank (pJ)
system.mem_ctrls.dram.rank1.prePowerDownEnergy            0                       # Energy for precharge power-down per rank (pJ)
system.mem_ctrls.dram.rank1.selfRefreshEnergy            0                       # Energy for self refresh per rank (pJ)
system.mem_ctrls.dram.rank1.totalEnergy   19304611950                       # Total energy per rank (pJ)
system.mem_ctrls.dram.rank1.averagePower   483.727770                       # Core power per rank (mW)
system.mem_ctrls.dram.rank1.totalIdleTime            0                       # Total Idle time Per DRAM Rank
system.mem_ctrls.dram.rank1.pwrStateTime::IDLE  32643019250                       # Time in different power states
system.mem_ctrls.dram.rank1.pwrStateTime::REF   1332500000                       # Time in different power states
system.mem_ctrls.dram.rank1.pwrStateTime::SREF            0                       # Time in different power states
system.mem_ctrls.dram.rank1.pwrStateTime::PRE_PDN            0                       # Time in different power states
system.mem_ctrls.dram.rank1.pwrStateTime::ACT   5932489250                       # Time in different power states
system.mem_ctrls.dram.rank1.pwrStateTime::ACT_PDN            0                       # Time in different power states
system.mem_ctrls.power_state.pwrStateResidencyTicks::UNDEFINED  39908008500                       # Cumulative time (in ticks) in various power states
system.membus.trans_dist::ReadResp              11219                       # Transaction distribution
system.membus.trans_dist::WritebackDirty        31286                       # Transaction distribution
system.membus.trans_dist::CleanEvict            10118                       # Transaction distribution
system.membus.trans_dist::ReadExReq             38816                       # Transaction distribution
system.membus.trans_dist::ReadExResp            38816                       # Transaction distribution
system.membus.trans_dist::ReadSharedReq         11219                       # Transaction distribution
system.membus.pkt_count_system.l2.mem_side_port::system.mem_ctrls.port       141474                       # Packet count per connected requestor and responder (bytes)
system.membus.pkt_count_system.l2.mem_side_port::total       141474                       # Packet count per connected requestor and responder (bytes)
system.membus.pkt_count::total                 141474                       # Packet count per connected requestor and responder (bytes)
system.membus.pkt_size_system.l2.mem_side_port::system.mem_ctrls.port      5204544                       # Cumulative packet size per connected requestor and responder (bytes)
system.membus.pkt_size_system.l2.mem_side_port::total      5204544                       # Cumulative packet size per connected requestor and responder (bytes)
system.membus.pkt_size::total                 5204544                       # Cumulative packet size per connected requestor and responder (bytes)
system.membus.snoops                                0                       # Total snoops (count)
system.membus.snoopTraffic                          0                       # Total snoop traffic (bytes)
system.membus.snoop_fanout::samples             50035                       # Request fanout histogram
system.membus.snoop_fanout::mean                    0                       # Request fanout histogram
system.membus.snoop_fanout::stdev                   0                       # Request fanout histogram
system.membus.snoop_fanout::underflows              0      0.00%      0.00% # Request fanout histogram
system.membus.snoop_fanout::0                   50035    100.00%    100.00% # Request fanout histogram
system.membus.snoop_fanout::1                       0      0.00%    100.00% # Request fanout histogram
system.membus.snoop_fanout::overflows               0      0.00%    100.00% # Request fanout histogram
system.membus.snoop_fanout::min_value               0                       # Request fanout histogram
system.membus.snoop_fanout::max_value               0                       # Request fanout histogram
system.membus.snoop_fanout::total               50035                       # Request fanout histogram
system.membus.power_state.pwrStateResidencyTicks::UNDEFINED  39908008500                       # Cumulative time (in ticks) in various power states
system.membus.reqLayer2.occupancy            54145750                       # Layer occupancy (ticks)
system.membus.reqLayer2.utilization               0.1                       # Layer utilization (%)
system.membus.respLayer1.occupancy           62543750                       # Layer occupancy (ticks)
system.membus.respLayer1.utilization              0.2                       # Layer utilization (%)
system.tol2bus.trans_dist::ReadResp             61870                       # Transaction distribution
system.tol2bus.trans_dist::WritebackDirty       112079                       # Transaction distribution
system.tol2bus.trans_dist::WritebackClean         2022                       # Transaction distribution
system.tol2bus.trans_dist::CleanEvict           30432                       # Transaction distribution
system.tol2bus.trans_dist::ReadExReq            41389                       # Transaction distribution
system.tol2bus.trans_dist::ReadExResp           41389                       # Transaction distribution
system.tol2bus.trans_dist::ReadCleanReq          2535                       # Transaction distribution
system.tol2bus.trans_dist::ReadSharedReq        59335                       # Transaction distribution
system.tol2bus.pkt_count_system.cpu.icache.mem_side_port::system.l2.cpu_side_port         7090                       # Packet count per connected requestor and responder (bytes)
system.tol2bus.pkt_count_system.cpu.dcache.mem_side_port::system.l2.cpu_side_port       301660                       # Packet count per connected requestor and responder (bytes)
system.tol2bus.pkt_count::total                308750                       # Packet count per connected requestor and responder (bytes)
system.tol2bus.pkt_size_system.cpu.icache.mem_side_port::system.l2.cpu_side_port       291520                       # Cumulative packet size per connected requestor and responder (bytes)
system.tol2bus.pkt_size_system.cpu.dcache.mem_side_port::system.l2.cpu_side_port     11617088                       # Cumulative packet size per connected requestor and responder (bytes)
system.tol2bus.pkt_size::total               11908608                       # Cumulative packet size per connected requestor and responder (bytes)
system.tol2bus.snoops                           42301                       # Total snoops (count)
system.tol2bus.snoopTraffic                   2002432                       # Total snoop traffic (bytes)
system.tol2bus.snoop_fanout::samples           145558                       # Request fanout histogram
system.tol2bus.snoop_fanout::mean            0.006266                       # Request fanout histogram
system.tol2bus.snoop_fanout::stdev           0.078907                       # Request fanout histogram
system.tol2bus.snoop_fanout::underflows             0      0.00%      0.00% # Request fanout histogram
system.tol2bus.snoop_fanout::0                 144646     99.37%     99.37% # Request fanout histogram
system.tol2bus.snoop_fanout::1                    912      0.63%    100.00% # Request fanout histogram
system.tol2bus.snoop_fanout::2                      0      0.00%    100.00% # Request fanout histogram
system.tol2bus.snoop_fanout::3                      0      0.00%    100.00% # Request fanout histogram
system.tol2bus.snoop_fanout::4                      0      0.00%    100.00% # Request fanout histogram
system.tol2bus.snoop_fanout::overflows              0      0.00%    100.00% # Request fanout histogram
system.tol2bus.snoop_fanout::min_value              0                       # Request fanout histogram
system.tol2bus.snoop_fanout::max_value              1                       # Request fanout histogram
system.tol2bus.snoop_fanout::total             145558                       # Request fanout histogram
system.tol2bus.power_state.pwrStateResidencyTicks::UNDEFINED  39908008500                       # Cumulative time (in ticks) in various power states
system.tol2bus.reqLayer0.occupancy          185561500                       # Layer occupancy (ticks)
system.tol2bus.reqLayer0.utilization              0.5                       # Layer utilization (%)
system.tol2bus.respLayer0.occupancy           3805993                       # Layer occupancy (ticks)
system.tol2bus.respLayer0.utilization             0.0                       # Layer utilization (%)
system.tol2bus.respLayer1.occupancy         151086000                       # Layer occupancy (ticks)
system.tol2bus.respLayer1.utilization             0.4                       # Layer utilization (%)
system.voltage_domain.voltage                       1                       # Voltage in Volts

---------- End Simulation Statistics   ----------
