
---------- Begin Simulation Statistics ----------
final_tick                                42301267500                       # Number of ticks from beginning of simulation (restored from checkpoints and never reset)
host_inst_rate                                  79027                       # Simulator instruction rate (inst/s)
host_mem_usage                                 675120                       # Number of bytes of host memory used
host_op_rate                                   148869                       # Simulator op (including micro ops) rate (op/s)
host_seconds                                  1265.39                       # Real time elapsed on the host
host_tick_rate                               33429394                       # Simulator tick rate (ticks/s)
sim_freq                                 1000000000000                       # Frequency of simulated ticks
sim_insts                                   100000001                       # Number of instructions simulated
sim_ops                                     188377356                       # Number of ops (including micro ops) simulated
sim_seconds                                  0.042301                       # Number of seconds simulated
sim_ticks                                 42301267500                       # Number of ticks simulated
system.cpu.cc_regfile_reads                 121892974                       # number of cc regfile reads
system.cpu.cc_regfile_writes                 59102557                       # number of cc regfile writes
system.cpu.committedInsts                   100000001                       # Number of Instructions Simulated
system.cpu.committedOps                     188377356                       # Number of Ops (including micro ops) Simulated
system.cpu.cpi                               0.846025                       # CPI: Cycles Per Instruction
system.cpu.cpi_total                         0.846025                       # CPI: Total CPI of All Threads
system.cpu.fp_regfile_reads                   5572670                       # number of floating regfile reads
system.cpu.fp_regfile_writes                  3146100                       # number of floating regfile writes
system.cpu.idleCycles                           86143                       # Total number of cycles that the CPU has spent unscheduled due to idling
system.cpu.iew.branchMispredicts               732134                       # Number of branch mispredicts detected at execute
system.cpu.iew.exec_branches                 22525886                       # Number of branches executed
system.cpu.iew.exec_nop                             0                       # number of nop insts executed
system.cpu.iew.exec_rate                     2.342737                       # Inst execution rate
system.cpu.iew.exec_refs                     39594102                       # number of memory reference insts executed
system.cpu.iew.exec_stores                   15997088                       # Number of stores executed
system.cpu.iew.exec_swp                             0                       # number of swp insts executed
system.cpu.iew.iewBlockCycles                 5311290                       # Number of cycles IEW is blocking
system.cpu.iew.iewDispLoadInsts              24035598                       # Number of dispatched load instructions
system.cpu.iew.iewDispNonSpecInsts                 73                       # Number of dispatched non-speculative instructions
system.cpu.iew.iewDispSquashedInsts              6765                       # Number of squashed instructions skipped by dispatch
system.cpu.iew.iewDispStoreInsts             16288699                       # Number of dispatched store instructions
system.cpu.iew.iewDispatchedInsts           203190742                       # Number of instructions dispatched to IQ
system.cpu.iew.iewExecLoadInsts              23597014                       # Number of load instructions executed
system.cpu.iew.iewExecSquashedInsts           1698586                       # Number of squashed instructions skipped in execute
system.cpu.iew.iewExecutedInsts             198201507                       # Number of executed instructions
system.cpu.iew.iewIQFullEvents                  48744                       # Number of times the IQ has become full, causing a stall
system.cpu.iew.iewIdleCycles                        0                       # Number of cycles IEW is idle
system.cpu.iew.iewLSQFullEvents               3517840                       # Number of times the LSQ has become full, causing a stall
system.cpu.iew.iewSquashCycles                 537456                       # Number of cycles IEW is squashing
system.cpu.iew.iewUnblockCycles               3602279                       # Number of cycles IEW is unblocking
system.cpu.iew.memOrderViolationEvents           1179                       # Number of memory order violations
system.cpu.iew.predictedNotTakenIncorrect       554643                       # Number of branches that were predicted not taken incorrectly
system.cpu.iew.predictedTakenIncorrect         177491                       # Number of branches that were predicted taken incorrectly
system.cpu.iew.wb_consumers                 221816913                       # num instructions consuming a value
system.cpu.iew.wb_count                     197786757                       # cumulative count of insts written-back
system.cpu.iew.wb_fanout                     0.620677                       # average fanout of values written-back
system.cpu.iew.wb_producers                 137676578                       # num instructions producing a value
system.cpu.iew.wb_rate                       2.337835                       # insts written-back per cycle
system.cpu.iew.wb_sent                      197953303                       # cumulative count of insts sent to commit
system.cpu.int_regfile_reads                302498725                       # number of integer regfile reads
system.cpu.int_regfile_writes               157133011                       # number of integer regfile writes
system.cpu.ipc                               1.181998                       # IPC: Instructions Per Cycle
system.cpu.ipc_total                         1.181998                       # IPC: Total IPC of All Threads
system.cpu.iq.FU_type_0::No_OpClass           1749318      0.88%      0.88% # Type of FU issued
system.cpu.iq.FU_type_0::IntAlu             154077255     77.08%     77.95% # Type of FU issued
system.cpu.iq.FU_type_0::IntMult               750809      0.38%     78.33% # Type of FU issued
system.cpu.iq.FU_type_0::IntDiv                812982      0.41%     78.73% # Type of FU issued
system.cpu.iq.FU_type_0::FloatAdd              478051      0.24%     78.97% # Type of FU issued
system.cpu.iq.FU_type_0::FloatCmp                   0      0.00%     78.97% # Type of FU issued
system.cpu.iq.FU_type_0::FloatCvt                  32      0.00%     78.97% # Type of FU issued
system.cpu.iq.FU_type_0::FloatMult                  0      0.00%     78.97% # Type of FU issued
system.cpu.iq.FU_type_0::FloatMultAcc               0      0.00%     78.97% # Type of FU issued
system.cpu.iq.FU_type_0::FloatDiv                   0      0.00%     78.97% # Type of FU issued
system.cpu.iq.FU_type_0::FloatMisc                  0      0.00%     78.97% # Type of FU issued
system.cpu.iq.FU_type_0::FloatSqrt                  0      0.00%     78.97% # Type of FU issued
system.cpu.iq.FU_type_0::SimdAdd                  486      0.00%     78.97% # Type of FU issued
system.cpu.iq.FU_type_0::SimdAddAcc                 0      0.00%     78.97% # Type of FU issued
system.cpu.iq.FU_type_0::SimdAlu               193916      0.10%     79.07% # Type of FU issued
system.cpu.iq.FU_type_0::SimdCmp                   20      0.00%     79.07% # Type of FU issued
system.cpu.iq.FU_type_0::SimdCvt               404768      0.20%     79.27% # Type of FU issued
system.cpu.iq.FU_type_0::SimdMisc             1265688      0.63%     79.91% # Type of FU issued
system.cpu.iq.FU_type_0::SimdMult                   0      0.00%     79.91% # Type of FU issued
system.cpu.iq.FU_type_0::SimdMultAcc                0      0.00%     79.91% # Type of FU issued
system.cpu.iq.FU_type_0::SimdShift                378      0.00%     79.91% # Type of FU issued
system.cpu.iq.FU_type_0::SimdShiftAcc               0      0.00%     79.91% # Type of FU issued
system.cpu.iq.FU_type_0::SimdDiv                    0      0.00%     79.91% # Type of FU issued
system.cpu.iq.FU_type_0::SimdSqrt                   0      0.00%     79.91% # Type of FU issued
system.cpu.iq.FU_type_0::SimdFloatAdd               0      0.00%     79.91% # Type of FU issued
system.cpu.iq.FU_type_0::SimdFloatAlu               0      0.00%     79.91% # Type of FU issued
system.cpu.iq.FU_type_0::SimdFloatCmp               0      0.00%     79.91% # Type of FU issued
system.cpu.iq.FU_type_0::SimdFloatCvt               4      0.00%     79.91% # Type of FU issued
system.cpu.iq.FU_type_0::SimdFloatDiv               0      0.00%     79.91% # Type of FU issued
system.cpu.iq.FU_type_0::SimdFloatMisc              0      0.00%     79.91% # Type of FU issued
system.cpu.iq.FU_type_0::SimdFloatMult              2      0.00%     79.91% # Type of FU issued
system.cpu.iq.FU_type_0::SimdFloatMultAcc            0      0.00%     79.91% # Type of FU issued
system.cpu.iq.FU_type_0::SimdFloatSqrt              0      0.00%     79.91% # Type of FU issued
system.cpu.iq.FU_type_0::SimdReduceAdd              0      0.00%     79.91% # Type of FU issued
system.cpu.iq.FU_type_0::SimdReduceAlu              0      0.00%     79.91% # Type of FU issued
system.cpu.iq.FU_type_0::SimdReduceCmp              0      0.00%     79.91% # Type of FU issued
system.cpu.iq.FU_type_0::SimdFloatReduceAdd            0      0.00%     79.91% # Type of FU issued
system.cpu.iq.FU_type_0::SimdFloatReduceCmp            0      0.00%     79.91% # Type of FU issued
system.cpu.iq.FU_type_0::SimdAes                    0      0.00%     79.91% # Type of FU issued
system.cpu.iq.FU_type_0::SimdAesMix                 0      0.00%     79.91% # Type of FU issued
system.cpu.iq.FU_type_0::SimdSha1Hash               0      0.00%     79.91% # Type of FU issued
system.cpu.iq.FU_type_0::SimdSha1Hash2              0      0.00%     79.91% # Type of FU issued
system.cpu.iq.FU_type_0::SimdSha256Hash             0      0.00%     79.91% # Type of FU issued
system.cpu.iq.FU_type_0::SimdSha256Hash2            0      0.00%     79.91% # Type of FU issued
system.cpu.iq.FU_type_0::SimdShaSigma2              0      0.00%     79.91% # Type of FU issued
system.cpu.iq.FU_type_0::SimdShaSigma3              0      0.00%     79.91% # Type of FU issued
system.cpu.iq.FU_type_0::SimdPredAlu                0      0.00%     79.91% # Type of FU issued
system.cpu.iq.FU_type_0::MemRead             22927820     11.47%     91.38% # Type of FU issued
system.cpu.iq.FU_type_0::MemWrite            14580084      7.29%     98.67% # Type of FU issued
system.cpu.iq.FU_type_0::FloatMemRead         1056661      0.53%     99.20% # Type of FU issued
system.cpu.iq.FU_type_0::FloatMemWrite        1601824      0.80%    100.00% # Type of FU issued
system.cpu.iq.FU_type_0::IprAccess                  0      0.00%    100.00% # Type of FU issued
system.cpu.iq.FU_type_0::InstPrefetch               0      0.00%    100.00% # Type of FU issued
system.cpu.iq.FU_type_0::total              199900098                       # Type of FU issued
system.cpu.iq.fp_alu_accesses                 5441956                       # Number of floating point alu accesses
system.cpu.iq.fp_inst_queue_reads            10735080                       # Number of floating instruction queue reads
system.cpu.iq.fp_inst_queue_wakeup_accesses      5063313                       # Number of floating instruction queue wakeup accesses
system.cpu.iq.fp_inst_queue_writes            6595372                       # Number of floating instruction queue writes
system.cpu.iq.fu_busy_cnt                     3388344                       # FU busy when requested
system.cpu.iq.fu_busy_rate                   0.016950                       # FU busy rate (busy events/executed inst)
system.cpu.iq.fu_full::No_OpClass                   0      0.00%      0.00% # attempts to use FU when none available
system.cpu.iq.fu_full::IntAlu                 2823465     83.33%     83.33% # attempts to use FU when none available
system.cpu.iq.fu_full::IntMult                      0      0.00%     83.33% # attempts to use FU when none available
system.cpu.iq.fu_full::IntDiv                       0      0.00%     83.33% # attempts to use FU when none available
system.cpu.iq.fu_full::FloatAdd                     0      0.00%     83.33% # attempts to use FU when none available
system.cpu.iq.fu_full::FloatCmp                     0      0.00%     83.33% # attempts to use FU when none available
system.cpu.iq.fu_full::FloatCvt                     0      0.00%     83.33% # attempts to use FU when none available
system.cpu.iq.fu_full::FloatMult                    0      0.00%     83.33% # attempts to use FU when none available
system.cpu.iq.fu_full::FloatMultAcc                 0      0.00%     83.33% # attempts to use FU when none available
system.cpu.iq.fu_full::FloatDiv                     0      0.00%     83.33% # attempts to use FU when none available
system.cpu.iq.fu_full::FloatMisc                    0      0.00%     83.33% # attempts to use FU when none available
system.cpu.iq.fu_full::FloatSqrt                    0      0.00%     83.33% # attempts to use FU when none available
system.cpu.iq.fu_full::SimdAdd                      1      0.00%     83.33% # attempts to use FU when none available
system.cpu.iq.fu_full::SimdAddAcc                   0      0.00%     83.33% # attempts to use FU when none available
system.cpu.iq.fu_full::SimdAlu                     28      0.00%     83.33% # attempts to use FU when none available
system.cpu.iq.fu_full::SimdCmp                      2      0.00%     83.33% # attempts to use FU when none available
system.cpu.iq.fu_full::SimdCvt                   6629      0.20%     83.53% # attempts to use FU when none available
system.cpu.iq.fu_full::SimdMisc                   117      0.00%     83.53% # attempts to use FU when none available
system.cpu.iq.fu_full::SimdMult                     0      0.00%     83.53% # attempts to use FU when none available
system.cpu.iq.fu_full::SimdMultAcc                  0      0.00%     83.53% # attempts to use FU when none available
system.cpu.iq.fu_full::SimdShift                    1      0.00%     83.53% # attempts to use FU when none available
system.cpu.iq.fu_full::SimdShiftAcc                 0      0.00%     83.53% # attempts to use FU when none available
system.cpu.iq.fu_full::SimdDiv                      0      0.00%     83.53% # attempts to use FU when none available
system.cpu.iq.fu_full::SimdSqrt                     0      0.00%     83.53% # attempts to use FU when none available
system.cpu.iq.fu_full::SimdFloatAdd                 0      0.00%     83.53% # attempts to use FU when none available
system.cpu.iq.fu_full::SimdFloatAlu                 0      0.00%     83.53% # attempts to use FU when none available
system.cpu.iq.fu_full::SimdFloatCmp                 0      0.00%     83.53% # attempts to use FU when none available
system.cpu.iq.fu_full::SimdFloatCvt                 0      0.00%     83.53% # attempts to use FU when none available
system.cpu.iq.fu_full::SimdFloatDiv                 0      0.00%     83.53% # attempts to use FU when none available
system.cpu.iq.fu_full::SimdFloatMisc                0      0.00%     83.53% # attempts to use FU when none available
system.cpu.iq.fu_full::SimdFloatMult                0      0.00%     83.53% # attempts to use FU when none available
system.cpu.iq.fu_full::SimdFloatMultAcc             0      0.00%     83.53% # attempts to use FU when none available
system.cpu.iq.fu_full::SimdFloatSqrt                0      0.00%     83.53% # attempts to use FU when none available
system.cpu.iq.fu_full::SimdReduceAdd                0      0.00%     83.53% # attempts to use FU when none available
system.cpu.iq.fu_full::SimdReduceAlu                0      0.00%     83.53% # attempts to use FU when none available
system.cpu.iq.fu_full::SimdReduceCmp                0      0.00%     83.53% # attempts to use FU when none available
system.cpu.iq.fu_full::SimdFloatReduceAdd            0      0.00%     83.53% # attempts to use FU when none available
system.cpu.iq.fu_full::SimdFloatReduceCmp            0      0.00%     83.53% # attempts to use FU when none available
system.cpu.iq.fu_full::SimdAes                      0      0.00%     83.53% # attempts to use FU when none available
system.cpu.iq.fu_full::SimdAesMix                   0      0.00%     83.53% # attempts to use FU when none available
system.cpu.iq.fu_full::SimdSha1Hash                 0      0.00%     83.53% # attempts to use FU when none available
system.cpu.iq.fu_full::SimdSha1Hash2                0      0.00%     83.53% # attempts to use FU when none available
system.cpu.iq.fu_full::SimdSha256Hash               0      0.00%     83.53% # attempts to use FU when none available
system.cpu.iq.fu_full::SimdSha256Hash2              0      0.00%     83.53% # attempts to use FU when none available
system.cpu.iq.fu_full::SimdShaSigma2                0      0.00%     83.53% # attempts to use FU when none available
system.cpu.iq.fu_full::SimdShaSigma3                0      0.00%     83.53% # attempts to use FU when none available
system.cpu.iq.fu_full::SimdPredAlu                  0      0.00%     83.53% # attempts to use FU when none available
system.cpu.iq.fu_full::MemRead                 313204      9.24%     92.77% # attempts to use FU when none available
system.cpu.iq.fu_full::MemWrite                104283      3.08%     95.85% # attempts to use FU when none available
system.cpu.iq.fu_full::FloatMemRead             19687      0.58%     96.43% # attempts to use FU when none available
system.cpu.iq.fu_full::FloatMemWrite           120927      3.57%    100.00% # attempts to use FU when none available
system.cpu.iq.fu_full::IprAccess                    0      0.00%    100.00% # attempts to use FU when none available
system.cpu.iq.fu_full::InstPrefetch                 0      0.00%    100.00% # attempts to use FU when none available
system.cpu.iq.int_alu_accesses              196097168                       # Number of integer alu accesses
system.cpu.iq.int_inst_queue_reads          477039714                       # Number of integer instruction queue reads
system.cpu.iq.int_inst_queue_wakeup_accesses    192723444                       # Number of integer instruction queue wakeup accesses
system.cpu.iq.int_inst_queue_writes         211409881                       # Number of integer instruction queue writes
system.cpu.iq.iqInstsAdded                  203190563                       # Number of instructions added to the IQ (excludes non-spec)
system.cpu.iq.iqInstsIssued                 199900098                       # Number of instructions issued
system.cpu.iq.iqNonSpecInstsAdded                 179                       # Number of non-speculative instructions added to the IQ
system.cpu.iq.iqSquashedInstsExamined        14813351                       # Number of squashed instructions iterated over during squash; mainly for profiling
system.cpu.iq.iqSquashedInstsIssued             69866                       # Number of squashed instructions issued
system.cpu.iq.iqSquashedNonSpecRemoved            113                       # Number of squashed non-spec instructions that were removed
system.cpu.iq.iqSquashedOperandsExamined     17117190                       # Number of squashed operands that are examined and possibly removed from graph
system.cpu.iq.issued_per_cycle::samples      84516393                       # Number of insts issued each cycle
system.cpu.iq.issued_per_cycle::mean         2.365223                       # Number of insts issued each cycle
system.cpu.iq.issued_per_cycle::stdev        2.477287                       # Number of insts issued each cycle
system.cpu.iq.issued_per_cycle::underflows            0      0.00%      0.00% # Number of insts issued each cycle
system.cpu.iq.issued_per_cycle::0            33605546     39.76%     39.76% # Number of insts issued each cycle
system.cpu.iq.issued_per_cycle::1             6527751      7.72%     47.49% # Number of insts issued each cycle
system.cpu.iq.issued_per_cycle::2             8041567      9.51%     57.00% # Number of insts issued each cycle
system.cpu.iq.issued_per_cycle::3             9126328     10.80%     67.80% # Number of insts issued each cycle
system.cpu.iq.issued_per_cycle::4             8012468      9.48%     77.28% # Number of insts issued each cycle
system.cpu.iq.issued_per_cycle::5             5891175      6.97%     84.25% # Number of insts issued each cycle
system.cpu.iq.issued_per_cycle::6             7275732      8.61%     92.86% # Number of insts issued each cycle
system.cpu.iq.issued_per_cycle::7             3536518      4.18%     97.04% # Number of insts issued each cycle
system.cpu.iq.issued_per_cycle::8             2499308      2.96%    100.00% # Number of insts issued each cycle
system.cpu.iq.issued_per_cycle::overflows            0      0.00%    100.00% # Number of insts issued each cycle
system.cpu.iq.issued_per_cycle::min_value            0                       # Number of insts issued each cycle
system.cpu.iq.issued_per_cycle::max_value            8                       # Number of insts issued each cycle
system.cpu.iq.issued_per_cycle::total        84516393                       # Number of insts issued each cycle
system.cpu.iq.rate                           2.362814                       # Inst issue rate
system.cpu.iq.vec_alu_accesses                      0                       # Number of vector alu accesses
system.cpu.iq.vec_inst_queue_reads                  0                       # Number of vector instruction queue reads
system.cpu.iq.vec_inst_queue_wakeup_accesses            0                       # Number of vector instruction queue wakeup accesses
system.cpu.iq.vec_inst_queue_writes                 0                       # Number of vector instruction queue writes
system.cpu.memDep0.conflictingLoads            654920                       # Number of conflicting loads.
system.cpu.memDep0.conflictingStores           161851                       # Number of conflicting stores.
system.cpu.memDep0.insertedLoads             24035598                       # Number of loads inserted to the mem dependence unit.
system.cpu.memDep0.insertedStores            16288699                       # Number of stores inserted to the mem dependence unit.
system.cpu.misc_regfile_reads                84455537                       # number of misc regfile reads
system.cpu.misc_regfile_writes                     18                       # number of misc regfile writes
system.cpu.numCycles                         84602536                       # number of cpu cycles simulated
system.cpu.numWorkItemsCompleted                    0                       # number of work items this cpu completed
system.cpu.numWorkItemsStarted                      0                       # number of work items this cpu started
system.cpu.timesIdled                            1310                       # Number of times that the entire CPU went into an idle state and unscheduled itself
system.cpu.workload.numSyscalls                   128                       # Number of system calls
system.membus.snoop_filter.hit_multi_requests            0                       # Number of requests hitting in the snoop filter with multiple (>1) holders of the requested data.
system.membus.snoop_filter.hit_multi_snoops            0                       # Number of snoops hitting in the snoop filter with multiple (>1) holders of the requested data.
system.membus.snoop_filter.hit_single_requests       201787                       # Number of requests hitting in the snoop filter with a single holder of the requested data.
system.membus.snoop_filter.hit_single_snoops            0                       # Number of snoops hitting in the snoop filter with a single holder of the requested data.
system.membus.snoop_filter.tot_requests        412282                       # Total number of requests made to the snoop filter.
system.membus.snoop_filter.tot_snoops               0                       # Total number of snoops made to the snoop filter.
system.tol2bus.snoop_filter.hit_multi_requests           38                       # Number of requests hitting in the snoop filter with multiple (>1) holders of the requested data.
system.tol2bus.snoop_filter.hit_multi_snoops           10                       # Number of snoops hitting in the snoop filter with multiple (>1) holders of the requested data.
system.tol2bus.snoop_filter.hit_single_requests       404046                       # Number of requests hitting in the snoop filter with a single holder of the requested data.
system.tol2bus.snoop_filter.hit_single_snoops          865                       # Number of snoops hitting in the snoop filter with a single holder of the requested data.
system.tol2bus.snoop_filter.tot_requests       809111                       # Total number of requests made to the snoop filter.
system.tol2bus.snoop_filter.tot_snoops            875                       # Total number of snoops made to the snoop filter.
system.clk_domain.clock                           250                       # Clock period in ticks
system.cpu.branchPred.lookups                24693856                       # Number of BP lookups
system.cpu.branchPred.condPredicted          20515283                       # Number of conditional branches predicted
system.cpu.branchPred.condIncorrect            629478                       # Number of conditional branches incorrect
system.cpu.branchPred.BTBLookups              9301171                       # Number of BTB lookups
system.cpu.branchPred.BTBHits                 8986462                       # Number of BTB hits
system.cpu.branchPred.BTBHitPct             96.616458                       # BTB Hit Percentage
system.cpu.branchPred.RASUsed                 1094414                       # Number of times the RAS was used to get a target.
system.cpu.branchPred.RASIncorrect                  3                       # Number of incorrect RAS predictions.
system.cpu.branchPred.indirectLookups          547249                       # Number of indirect predictor lookups.
system.cpu.branchPred.indirectHits             504321                       # Number of indirect target hits.
system.cpu.branchPred.indirectMisses            42928                       # Number of indirect misses.
system.cpu.branchPred.indirectMispredicted          356                       # Number of mispredicted indirect branches.
system.cpu.commit.commitSquashedInsts        14773129                       # The number of squashed insts skipped by commit
system.cpu.commit.commitNonSpecStalls              66                       # The number of times commit has been forced to stall to communicate backwards
system.cpu.commit.branchMispredicts            533066                       # The number of times a branch was mispredicted
system.cpu.commit.numCommittedDist::samples     82360265                       # Number of insts commited each cycle
system.cpu.commit.numCommittedDist::mean     2.287236                       # Number of insts commited each cycle
system.cpu.commit.numCommittedDist::stdev     2.815054                       # Number of insts commited each cycle
system.cpu.commit.numCommittedDist::underflows            0      0.00%      0.00% # Number of insts commited each cycle
system.cpu.commit.numCommittedDist::0        36562314     44.39%     44.39% # Number of insts commited each cycle
system.cpu.commit.numCommittedDist::1        10074130     12.23%     56.62% # Number of insts commited each cycle
system.cpu.commit.numCommittedDist::2         4956425      6.02%     62.64% # Number of insts commited each cycle
system.cpu.commit.numCommittedDist::3         9433823     11.45%     74.10% # Number of insts commited each cycle
system.cpu.commit.numCommittedDist::4         2878676      3.50%     77.59% # Number of insts commited each cycle
system.cpu.commit.numCommittedDist::5         3497054      4.25%     81.84% # Number of insts commited each cycle
system.cpu.commit.numCommittedDist::6         3272851      3.97%     85.81% # Number of insts commited each cycle
system.cpu.commit.numCommittedDist::7         2028109      2.46%     88.27% # Number of insts commited each cycle
system.cpu.commit.numCommittedDist::8         9656883     11.73%    100.00% # Number of insts commited each cycle
system.cpu.commit.numCommittedDist::overflows            0      0.00%    100.00% # Number of insts commited each cycle
system.cpu.commit.numCommittedDist::min_value            0                       # Number of insts commited each cycle
system.cpu.commit.numCommittedDist::max_value            8                       # Number of insts commited each cycle
system.cpu.commit.numCommittedDist::total     82360265                       # Number of insts commited each cycle
system.cpu.commit.instsCommitted            100000001                       # Number of instructions committed
system.cpu.commit.opsCommitted              188377356                       # Number of ops (including micro ops) committed
system.cpu.commit.memRefs                    38036846                       # Number of memory references committed
system.cpu.commit.loads                      22459262                       # Number of loads committed
system.cpu.commit.amos                              0                       # Number of atomic instructions committed
system.cpu.commit.membars                          32                       # Number of memory barriers committed
system.cpu.commit.branches                   21544942                       # Number of branches committed
system.cpu.commit.vector                            0                       # Number of committed Vector instructions.
system.cpu.commit.floating                    4463062                       # Number of committed floating point instructions.
system.cpu.commit.integer                   184964991                       # Number of committed integer instructions.
system.cpu.commit.functionCalls                984766                       # Number of function calls committed.
system.cpu.commit.committedInstType_0::No_OpClass      1710424      0.91%      0.91% # Class of committed instruction
system.cpu.commit.committedInstType_0::IntAlu    145124422     77.04%     77.95% # Class of committed instruction
system.cpu.commit.committedInstType_0::IntMult       740405      0.39%     78.34% # Class of committed instruction
system.cpu.commit.committedInstType_0::IntDiv       795782      0.42%     78.76% # Class of committed instruction
system.cpu.commit.committedInstType_0::FloatAdd       476249      0.25%     79.02% # Class of committed instruction
system.cpu.commit.committedInstType_0::FloatCmp            0      0.00%     79.02% # Class of committed instruction
system.cpu.commit.committedInstType_0::FloatCvt           32      0.00%     79.02% # Class of committed instruction
system.cpu.commit.committedInstType_0::FloatMult            0      0.00%     79.02% # Class of committed instruction
system.cpu.commit.committedInstType_0::FloatMultAcc            0      0.00%     79.02% # Class of committed instruction
system.cpu.commit.committedInstType_0::FloatDiv            0      0.00%     79.02% # Class of committed instruction
system.cpu.commit.committedInstType_0::FloatMisc            0      0.00%     79.02% # Class of committed instruction
system.cpu.commit.committedInstType_0::FloatSqrt            0      0.00%     79.02% # Class of committed instruction
system.cpu.commit.committedInstType_0::SimdAdd          398      0.00%     79.02% # Class of committed instruction
system.cpu.commit.committedInstType_0::SimdAddAcc            0      0.00%     79.02% # Class of committed instruction
system.cpu.commit.committedInstType_0::SimdAlu        96914      0.05%     79.07% # Class of committed instruction
system.cpu.commit.committedInstType_0::SimdCmp           20      0.00%     79.07% # Class of committed instruction
system.cpu.commit.committedInstType_0::SimdCvt       255066      0.14%     79.20% # Class of committed instruction
system.cpu.commit.committedInstType_0::SimdMisc      1140687      0.61%     79.81% # Class of committed instruction
system.cpu.commit.committedInstType_0::SimdMult            0      0.00%     79.81% # Class of committed instruction
system.cpu.commit.committedInstType_0::SimdMultAcc            0      0.00%     79.81% # Class of committed instruction
system.cpu.commit.committedInstType_0::SimdShift          105      0.00%     79.81% # Class of committed instruction
system.cpu.commit.committedInstType_0::SimdShiftAcc            0      0.00%     79.81% # Class of committed instruction
system.cpu.commit.committedInstType_0::SimdDiv            0      0.00%     79.81% # Class of committed instruction
system.cpu.commit.committedInstType_0::SimdSqrt            0      0.00%     79.81% # Class of committed instruction
system.cpu.commit.committedInstType_0::SimdFloatAdd            0      0.00%     79.81% # Class of committed instruction
system.cpu.commit.committedInstType_0::SimdFloatAlu            0      0.00%     79.81% # Class of committed instruction
system.cpu.commit.committedInstType_0::SimdFloatCmp            0      0.00%     79.81% # Class of committed instruction
system.cpu.commit.committedInstType_0::SimdFloatCvt            4      0.00%     79.81% # Class of committed instruction
system.cpu.commit.committedInstType_0::SimdFloatDiv            0      0.00%     79.81% # Class of committed instruction
system.cpu.commit.committedInstType_0::SimdFloatMisc            0      0.00%     79.81% # Class of committed instruction
system.cpu.commit.committedInstType_0::SimdFloatMult            2      0.00%     79.81% # Class of committed instruction
system.cpu.commit.committedInstType_0::SimdFloatMultAcc            0      0.00%     79.81% # Class of committed instruction
system.cpu.commit.committedInstType_0::SimdFloatSqrt            0      0.00%     79.81% # Class of committed instruction
system.cpu.commit.committedInstType_0::SimdReduceAdd            0      0.00%     79.81% # Class of committed instruction
system.cpu.commit.committedInstType_0::SimdReduceAlu            0      0.00%     79.81% # Class of committed instruction
system.cpu.commit.committedInstType_0::SimdReduceCmp            0      0.00%     79.81% # Class of committed instruction
system.cpu.commit.committedInstType_0::SimdFloatReduceAdd            0      0.00%     79.81% # Class of committed instruction
system.cpu.commit.committedInstType_0::SimdFloatReduceCmp            0      0.00%     79.81% # Class of committed instruction
system.cpu.commit.committedInstType_0::SimdAes            0      0.00%     79.81% # Class of committed instruction
system.cpu.commit.committedInstType_0::SimdAesMix            0      0.00%     79.81% # Class of committed instruction
system.cpu.commit.committedInstType_0::SimdSha1Hash            0      0.00%     79.81% # Class of committed instruction
system.cpu.commit.committedInstType_0::SimdSha1Hash2            0      0.00%     79.81% # Class of committed instruction
system.cpu.commit.committedInstType_0::SimdSha256Hash            0      0.00%     79.81% # Class of committed instruction
system.cpu.commit.committedInstType_0::SimdSha256Hash2            0      0.00%     79.81% # Class of committed instruction
system.cpu.commit.committedInstType_0::SimdShaSigma2            0      0.00%     79.81% # Class of committed instruction
system.cpu.commit.committedInstType_0::SimdShaSigma3            0      0.00%     79.81% # Class of committed instruction
system.cpu.commit.committedInstType_0::SimdPredAlu            0      0.00%     79.81% # Class of committed instruction
system.cpu.commit.committedInstType_0::MemRead     21743474     11.54%     91.35% # Class of committed instruction
system.cpu.commit.committedInstType_0::MemWrite     14086201      7.48%     98.83% # Class of committed instruction
system.cpu.commit.committedInstType_0::FloatMemRead       715788      0.38%     99.21% # Class of committed instruction
system.cpu.commit.committedInstType_0::FloatMemWrite      1491383      0.79%    100.00% # Class of committed instruction
system.cpu.commit.committedInstType_0::IprAccess            0      0.00%    100.00% # Class of committed instruction
system.cpu.commit.committedInstType_0::InstPrefetch            0      0.00%    100.00% # Class of committed instruction
system.cpu.commit.committedInstType_0::total    188377356                       # Class of committed instruction
system.cpu.commit.commitEligibleSamples       9656883                       # number cycles where commit BW limit reached
system.cpu.dcache.demand_hits::.cpu.data     34735406                       # number of demand (read+write) hits
system.cpu.dcache.demand_hits::total         34735406                       # number of demand (read+write) hits
system.cpu.dcache.overall_hits::.cpu.data     34735406                       # number of overall hits
system.cpu.dcache.overall_hits::total        34735406                       # number of overall hits
system.cpu.dcache.demand_misses::.cpu.data       349536                       # number of demand (read+write) misses
system.cpu.dcache.demand_misses::total         349536                       # number of demand (read+write) misses
system.cpu.dcache.overall_misses::.cpu.data       349536                       # number of overall misses
system.cpu.dcache.overall_misses::total        349536                       # number of overall misses
system.cpu.dcache.demand_miss_latency::.cpu.data  22723240492                       # number of demand (read+write) miss cycles
system.cpu.dcache.demand_miss_latency::total  22723240492                       # number of demand (read+write) miss cycles
system.cpu.dcache.overall_miss_latency::.cpu.data  22723240492                       # number of overall miss cycles
system.cpu.dcache.overall_miss_latency::total  22723240492                       # number of overall miss cycles
system.cpu.dcache.demand_accesses::.cpu.data     35084942                       # number of demand (read+write) accesses
system.cpu.dcache.demand_accesses::total     35084942                       # number of demand (read+write) accesses
system.cpu.dcache.overall_accesses::.cpu.data     35084942                       # number of overall (read+write) accesses
system.cpu.dcache.overall_accesses::total     35084942                       # number of overall (read+write) accesses
system.cpu.dcache.demand_miss_rate::.cpu.data     0.009963                       # miss rate for demand accesses
system.cpu.dcache.demand_miss_rate::total     0.009963                       # miss rate for demand accesses
system.cpu.dcache.overall_miss_rate::.cpu.data     0.009963                       # miss rate for overall accesses
system.cpu.dcache.overall_miss_rate::total     0.009963                       # miss rate for overall accesses
system.cpu.dcache.demand_avg_miss_latency::.cpu.data 65009.728589                       # average overall miss latency
system.cpu.dcache.demand_avg_miss_latency::total 65009.728589                       # average overall miss latency
system.cpu.dcache.overall_avg_miss_latency::.cpu.data 65009.728589                       # average overall miss latency
system.cpu.dcache.overall_avg_miss_latency::total 65009.728589                       # average overall miss latency
system.cpu.dcache.blocked_cycles::no_mshrs        23231                       # number of cycles access was blocked
system.cpu.dcache.blocked_cycles::no_targets            0                       # number of cycles access was blocked
system.cpu.dcache.blocked::no_mshrs               832                       # number of cycles access was blocked
system.cpu.dcache.blocked::no_targets               0                       # number of cycles access was blocked
system.cpu.dcache.avg_blocked_cycles::no_mshrs    27.921875                       # average number of cycles each access was blocked
system.cpu.dcache.avg_blocked_cycles::no_targets          nan                       # average number of cycles each access was blocked
system.cpu.dcache.writebacks::.writebacks       243177                       # number of writebacks
system.cpu.dcache.writebacks::total            243177                       # number of writebacks
system.cpu.dcache.demand_mshr_hits::.cpu.data        90382                       # number of demand (read+write) MSHR hits
system.cpu.dcache.demand_mshr_hits::total        90382                       # number of demand (read+write) MSHR hits
system.cpu.dcache.overall_mshr_hits::.cpu.data        90382                       # number of overall MSHR hits
system.cpu.dcache.overall_mshr_hits::total        90382                       # number of overall MSHR hits
system.cpu.dcache.demand_mshr_misses::.cpu.data       259154                       # number of demand (read+write) MSHR misses
system.cpu.dcache.demand_mshr_misses::total       259154                       # number of demand (read+write) MSHR misses
system.cpu.dcache.overall_mshr_misses::.cpu.data       259154                       # number of overall MSHR misses
system.cpu.dcache.overall_mshr_misses::total       259154                       # number of overall MSHR misses
system.cpu.dcache.demand_mshr_miss_latency::.cpu.data  18293522992                       # number of demand (read+write) MSHR miss cycles
system.cpu.dcache.demand_mshr_miss_latency::total  18293522992                       # number of demand (read+write) MSHR miss cycles
system.cpu.dcache.overall_mshr_miss_latency::.cpu.data  18293522992                       # number of overall MSHR miss cycles
system.cpu.dcache.overall_mshr_miss_latency::total  18293522992                       # number of overall MSHR miss cycles
system.cpu.dcache.demand_mshr_miss_rate::.cpu.data     0.007386                       # mshr miss rate for demand accesses
system.cpu.dcache.demand_mshr_miss_rate::total     0.007386                       # mshr miss rate for demand accesses
system.cpu.dcache.overall_mshr_miss_rate::.cpu.data     0.007386                       # mshr miss rate for overall accesses
system.cpu.dcache.overall_mshr_miss_rate::total     0.007386                       # mshr miss rate for overall accesses
system.cpu.dcache.demand_avg_mshr_miss_latency::.cpu.data 70589.390833                       # average overall mshr miss latency
system.cpu.dcache.demand_avg_mshr_miss_latency::total 70589.390833                       # average overall mshr miss latency
system.cpu.dcache.overall_avg_mshr_miss_latency::.cpu.data 70589.390833                       # average overall mshr miss latency
system.cpu.dcache.overall_avg_mshr_miss_latency::total 70589.390833                       # average overall mshr miss latency
system.cpu.dcache.replacements                 258641                       # number of replacements
system.cpu.dcache.ReadReq_hits::.cpu.data     19351495                       # number of ReadReq hits
system.cpu.dcache.ReadReq_hits::total        19351495                       # number of ReadReq hits
system.cpu.dcache.ReadReq_misses::.cpu.data       155862                       # number of ReadReq misses
system.cpu.dcache.ReadReq_misses::total        155862                       # number of ReadReq misses
system.cpu.dcache.ReadReq_miss_latency::.cpu.data   8276907500                       # number of ReadReq miss cycles
system.cpu.dcache.ReadReq_miss_latency::total   8276907500                       # number of ReadReq miss cycles
system.cpu.dcache.ReadReq_accesses::.cpu.data     19507357                       # number of ReadReq accesses(hits+misses)
system.cpu.dcache.ReadReq_accesses::total     19507357                       # number of ReadReq accesses(hits+misses)
system.cpu.dcache.ReadReq_miss_rate::.cpu.data     0.007990                       # miss rate for ReadReq accesses
system.cpu.dcache.ReadReq_miss_rate::total     0.007990                       # miss rate for ReadReq accesses
system.cpu.dcache.ReadReq_avg_miss_latency::.cpu.data 53104.076042                       # average ReadReq miss latency
system.cpu.dcache.ReadReq_avg_miss_latency::total 53104.076042                       # average ReadReq miss latency
system.cpu.dcache.ReadReq_mshr_hits::.cpu.data        77828                       # number of ReadReq MSHR hits
system.cpu.dcache.ReadReq_mshr_hits::total        77828                       # number of ReadReq MSHR hits
system.cpu.dcache.ReadReq_mshr_misses::.cpu.data        78034                       # number of ReadReq MSHR misses
system.cpu.dcache.ReadReq_mshr_misses::total        78034                       # number of ReadReq MSHR misses
system.cpu.dcache.ReadReq_mshr_miss_latency::.cpu.data   4262567000                       # number of ReadReq MSHR miss cycles
system.cpu.dcache.ReadReq_mshr_miss_latency::total   4262567000                       # number of ReadReq MSHR miss cycles
system.cpu.dcache.ReadReq_mshr_miss_rate::.cpu.data     0.004000                       # mshr miss rate for ReadReq accesses
system.cpu.dcache.ReadReq_mshr_miss_rate::total     0.004000                       # mshr miss rate for ReadReq accesses
system.cpu.dcache.ReadReq_avg_mshr_miss_latency::.cpu.data 54624.484199                       # average ReadReq mshr miss latency
system.cpu.dcache.ReadReq_avg_mshr_miss_latency::total 54624.484199                       # average ReadReq mshr miss latency
system.cpu.dcache.WriteReq_hits::.cpu.data     15383911                       # number of WriteReq hits
system.cpu.dcache.WriteReq_hits::total       15383911                       # number of WriteReq hits
system.cpu.dcache.WriteReq_misses::.cpu.data       193674                       # number of WriteReq misses
system.cpu.dcache.WriteReq_misses::total       193674                       # number of WriteReq misses
system.cpu.dcache.WriteReq_miss_latency::.cpu.data  14446332992                       # number of WriteReq miss cycles
system.cpu.dcache.WriteReq_miss_latency::total  14446332992                       # number of WriteReq miss cycles
system.cpu.dcache.WriteReq_accesses::.cpu.data     15577585                       # number of WriteReq accesses(hits+misses)
system.cpu.dcache.WriteReq_accesses::total     15577585                       # number of WriteReq accesses(hits+misses)
system.cpu.dcache.WriteReq_miss_rate::.cpu.data     0.012433                       # miss rate for WriteReq accesses
system.cpu.dcache.WriteReq_miss_rate::total     0.012433                       # miss rate for WriteReq accesses
system.cpu.dcache.WriteReq_avg_miss_latency::.cpu.data 74590.977581                       # average WriteReq miss latency
system.cpu.dcache.WriteReq_avg_miss_latency::total 74590.977581                       # average WriteReq miss latency
system.cpu.dcache.WriteReq_mshr_hits::.cpu.data        12554                       # number of WriteReq MSHR hits
system.cpu.dcache.WriteReq_mshr_hits::total        12554                       # number of WriteReq MSHR hits
system.cpu.dcache.WriteReq_mshr_misses::.cpu.data       181120                       # number of WriteReq MSHR misses
system.cpu.dcache.WriteReq_mshr_misses::total       181120                       # number of WriteReq MSHR misses
system.cpu.dcache.WriteReq_mshr_miss_latency::.cpu.data  14030955992                       # number of WriteReq MSHR miss cycles
system.cpu.dcache.WriteReq_mshr_miss_latency::total  14030955992                       # number of WriteReq MSHR miss cycles
system.cpu.dcache.WriteReq_mshr_miss_rate::.cpu.data     0.011627                       # mshr miss rate for WriteReq accesses
system.cpu.dcache.WriteReq_mshr_miss_rate::total     0.011627                       # mshr miss rate for WriteReq accesses
system.cpu.dcache.WriteReq_avg_mshr_miss_latency::.cpu.data 77467.734055                       # average WriteReq mshr miss latency
system.cpu.dcache.WriteReq_avg_mshr_miss_latency::total 77467.734055                       # average WriteReq mshr miss latency
system.cpu.dcache.power_state.pwrStateResidencyTicks::UNDEFINED  42301267500                       # Cumulative time (in ticks) in various power states
system.cpu.dcache.tags.tagsinuse           511.643019                       # Cycle average of tags in use
system.cpu.dcache.tags.total_refs            34994560                       # Total number of references to valid blocks.
system.cpu.dcache.tags.sampled_refs            259153                       # Sample count of references to valid blocks.
system.cpu.dcache.tags.avg_refs            135.034362                       # Average number of references to valid blocks.
system.cpu.dcache.tags.warmup_cycle            163000                       # Cycle when the warmup percentage was hit.
system.cpu.dcache.tags.occ_blocks::.cpu.data   511.643019                       # Average occupied blocks per requestor
system.cpu.dcache.tags.occ_percent::.cpu.data     0.999303                       # Average percentage of cache occupancy
system.cpu.dcache.tags.occ_percent::total     0.999303                       # Average percentage of cache occupancy
system.cpu.dcache.tags.occ_task_id_blocks::1024          512                       # Occupied blocks per task id
system.cpu.dcache.tags.age_task_id_blocks_1024::0           32                       # Occupied blocks per task id
system.cpu.dcache.tags.age_task_id_blocks_1024::1          237                       # Occupied blocks per task id
system.cpu.dcache.tags.age_task_id_blocks_1024::2          213                       # Occupied blocks per task id
system.cpu.dcache.tags.age_task_id_blocks_1024::3           18                       # Occupied blocks per task id
system.cpu.dcache.tags.age_task_id_blocks_1024::4           12                       # Occupied blocks per task id
system.cpu.dcache.tags.occ_task_id_percent::1024            1                       # Percentage of cache occupancy per task id
system.cpu.dcache.tags.tag_accesses          70429037                       # Number of tag accesses
system.cpu.dcache.tags.data_accesses         70429037                       # Number of data accesses
system.cpu.dcache.tags.power_state.pwrStateResidencyTicks::UNDEFINED  42301267500                       # Cumulative time (in ticks) in various power states
system.cpu.decode.idleCycles                 20062410                       # Number of cycles decode is idle
system.cpu.decode.blockedCycles              30399419                       # Number of cycles decode is blocked
system.cpu.decode.runCycles                  31262257                       # Number of cycles decode is running
system.cpu.decode.unblockCycles               2254851                       # Number of cycles decode is unblocking
system.cpu.decode.squashCycles                 537456                       # Number of cycles decode is squashing
system.cpu.decode.branchResolved              8939405                       # Number of times decode resolved a  branch
system.cpu.decode.branchMispred                 96685                       # Number of times decode detected a branch misprediction
system.cpu.decode.decodedInsts              209863595                       # Number of instructions handled by decode
system.cpu.decode.squashedInsts                541772                       # Number of squashed instructions handled by decode
system.cpu.dtb.rdAccesses                    23623412                       # TLB accesses on read requests
system.cpu.dtb.wrAccesses                    15997092                       # TLB accesses on write requests
system.cpu.dtb.rdMisses                         23418                       # TLB misses on read requests
system.cpu.dtb.wrMisses                        109821                       # TLB misses on write requests
system.cpu.dtb.walker.power_state.pwrStateResidencyTicks::UNDEFINED  42301267500                       # Cumulative time (in ticks) in various power states
system.cpu.dtb_walker_cache.blocked_cycles::no_mshrs            0                       # number of cycles access was blocked
system.cpu.dtb_walker_cache.blocked_cycles::no_targets            0                       # number of cycles access was blocked
system.cpu.dtb_walker_cache.blocked::no_mshrs            0                       # number of cycles access was blocked
system.cpu.dtb_walker_cache.blocked::no_targets            0                       # number of cycles access was blocked
system.cpu.dtb_walker_cache.avg_blocked_cycles::no_mshrs          nan                       # average number of cycles each access was blocked
system.cpu.dtb_walker_cache.avg_blocked_cycles::no_targets          nan                       # average number of cycles each access was blocked
system.cpu.dtb_walker_cache.replacements            0                       # number of replacements
system.cpu.dtb_walker_cache.power_state.pwrStateResidencyTicks::UNDEFINED  42301267500                       # Cumulative time (in ticks) in various power states
system.cpu.dtb_walker_cache.tags.tagsinuse            0                       # Cycle average of tags in use
system.cpu.dtb_walker_cache.tags.total_refs            0                       # Total number of references to valid blocks.
system.cpu.dtb_walker_cache.tags.sampled_refs            0                       # Sample count of references to valid blocks.
system.cpu.dtb_walker_cache.tags.avg_refs          nan                       # Average number of references to valid blocks.
system.cpu.dtb_walker_cache.tags.warmup_cycle            0                       # Cycle when the warmup percentage was hit.
system.cpu.dtb_walker_cache.tags.tag_accesses            0                       # Number of tag accesses
system.cpu.dtb_walker_cache.tags.data_accesses            0                       # Number of data accesses
system.cpu.dtb_walker_cache.tags.power_state.pwrStateResidencyTicks::UNDEFINED  42301267500                       # Cumulative time (in ticks) in various power states
system.cpu.fetch.icacheStallCycles           21335183                       # Number of cycles fetch is stalled on an Icache miss
system.cpu.fetch.insts                      114984289                       # Number of instructions fetch has processed
system.cpu.fetch.branches                    24693856                       # Number of branches that fetch encountered
system.cpu.fetch.predictedBranches           10585197                       # Number of branches that fetch has predicted taken
system.cpu.fetch.cycles                      62544176                       # Number of cycles fetch has run and was not squashing or blocked
system.cpu.fetch.squashCycles                 1268258                       # Number of cycles fetch has spent squashing
system.cpu.fetch.miscStallCycles                  347                       # Number of cycles fetch has spent waiting on interrupts,or bad addresses, or out of MSHRs
system.cpu.fetch.pendingTrapStallCycles          2504                       # Number of stall cycles due to pending traps
system.cpu.fetch.pendingQuiesceStallCycles           12                       # Number of stall cycles due to pending quiesce instructions
system.cpu.fetch.icacheWaitRetryStallCycles           42                       # Number of stall cycles due to full MSHR
system.cpu.fetch.cacheLines                  17371379                       # Number of cache lines fetched
system.cpu.fetch.icacheSquashes                177885                       # Number of outstanding Icache misses that were squashed
system.cpu.fetch.nisnDist::samples           84516393                       # Number of instructions fetched each cycle (Total)
system.cpu.fetch.nisnDist::mean              2.557828                       # Number of instructions fetched each cycle (Total)
system.cpu.fetch.nisnDist::stdev             3.373882                       # Number of instructions fetched each cycle (Total)
system.cpu.fetch.nisnDist::underflows               0      0.00%      0.00% # Number of instructions fetched each cycle (Total)
system.cpu.fetch.nisnDist::0                 48476927     57.36%     57.36% # Number of instructions fetched each cycle (Total)
system.cpu.fetch.nisnDist::1                  1496632      1.77%     59.13% # Number of instructions fetched each cycle (Total)
system.cpu.fetch.nisnDist::2                  4065326      4.81%     63.94% # Number of instructions fetched each cycle (Total)
system.cpu.fetch.nisnDist::3                  3218156      3.81%     67.75% # Number of instructions fetched each cycle (Total)
system.cpu.fetch.nisnDist::4                  1914134      2.26%     70.01% # Number of instructions fetched each cycle (Total)
system.cpu.fetch.nisnDist::5                  2279317      2.70%     72.71% # Number of instructions fetched each cycle (Total)
system.cpu.fetch.nisnDist::6                  2355576      2.79%     75.50% # Number of instructions fetched each cycle (Total)
system.cpu.fetch.nisnDist::7                  1972536      2.33%     77.83% # Number of instructions fetched each cycle (Total)
system.cpu.fetch.nisnDist::8                 18737789     22.17%    100.00% # Number of instructions fetched each cycle (Total)
system.cpu.fetch.nisnDist::overflows                0      0.00%    100.00% # Number of instructions fetched each cycle (Total)
system.cpu.fetch.nisnDist::min_value                0                       # Number of instructions fetched each cycle (Total)
system.cpu.fetch.nisnDist::max_value                8                       # Number of instructions fetched each cycle (Total)
system.cpu.fetch.nisnDist::total             84516393                       # Number of instructions fetched each cycle (Total)
system.cpu.fetch.branchRate                  0.291881                       # Number of branch fetches per cycle
system.cpu.fetch.rate                        1.359112                       # Number of inst fetches per cycle
system.cpu.icache.demand_hits::.cpu.inst     17224693                       # number of demand (read+write) hits
system.cpu.icache.demand_hits::total         17224693                       # number of demand (read+write) hits
system.cpu.icache.overall_hits::.cpu.inst     17224693                       # number of overall hits
system.cpu.icache.overall_hits::total        17224693                       # number of overall hits
system.cpu.icache.demand_misses::.cpu.inst       146685                       # number of demand (read+write) misses
system.cpu.icache.demand_misses::total         146685                       # number of demand (read+write) misses
system.cpu.icache.overall_misses::.cpu.inst       146685                       # number of overall misses
system.cpu.icache.overall_misses::total        146685                       # number of overall misses
system.cpu.icache.demand_miss_latency::.cpu.inst   2017999499                       # number of demand (read+write) miss cycles
system.cpu.icache.demand_miss_latency::total   2017999499                       # number of demand (read+write) miss cycles
system.cpu.icache.overall_miss_latency::.cpu.inst   2017999499                       # number of overall miss cycles
system.cpu.icache.overall_miss_latency::total   2017999499                       # number of overall miss cycles
system.cpu.icache.demand_accesses::.cpu.inst     17371378                       # number of demand (read+write) accesses
system.cpu.icache.demand_accesses::total     17371378                       # number of demand (read+write) accesses
system.cpu.icache.overall_accesses::.cpu.inst     17371378                       # number of overall (read+write) accesses
system.cpu.icache.overall_accesses::total     17371378                       # number of overall (read+write) accesses
system.cpu.icache.demand_miss_rate::.cpu.inst     0.008444                       # miss rate for demand accesses
system.cpu.icache.demand_miss_rate::total     0.008444                       # miss rate for demand accesses
system.cpu.icache.overall_miss_rate::.cpu.inst     0.008444                       # miss rate for overall accesses
system.cpu.icache.overall_miss_rate::total     0.008444                       # miss rate for overall accesses
system.cpu.icache.demand_avg_miss_latency::.cpu.inst 13757.367822                       # average overall miss latency
system.cpu.icache.demand_avg_miss_latency::total 13757.367822                       # average overall miss latency
system.cpu.icache.overall_avg_miss_latency::.cpu.inst 13757.367822                       # average overall miss latency
system.cpu.icache.overall_avg_miss_latency::total 13757.367822                       # average overall miss latency
system.cpu.icache.blocked_cycles::no_mshrs          765                       # number of cycles access was blocked
system.cpu.icache.blocked_cycles::no_targets            0                       # number of cycles access was blocked
system.cpu.icache.blocked::no_mshrs                12                       # number of cycles access was blocked
system.cpu.icache.blocked::no_targets               0                       # number of cycles access was blocked
system.cpu.icache.avg_blocked_cycles::no_mshrs    63.750000                       # average number of cycles each access was blocked
system.cpu.icache.avg_blocked_cycles::no_targets          nan                       # average number of cycles each access was blocked
system.cpu.icache.writebacks::.writebacks       145404                       # number of writebacks
system.cpu.icache.writebacks::total            145404                       # number of writebacks
system.cpu.icache.demand_mshr_hits::.cpu.inst          773                       # number of demand (read+write) MSHR hits
system.cpu.icache.demand_mshr_hits::total          773                       # number of demand (read+write) MSHR hits
system.cpu.icache.overall_mshr_hits::.cpu.inst          773                       # number of overall MSHR hits
system.cpu.icache.overall_mshr_hits::total          773                       # number of overall MSHR hits
system.cpu.icache.demand_mshr_misses::.cpu.inst       145912                       # number of demand (read+write) MSHR misses
system.cpu.icache.demand_mshr_misses::total       145912                       # number of demand (read+write) MSHR misses
system.cpu.icache.overall_mshr_misses::.cpu.inst       145912                       # number of overall MSHR misses
system.cpu.icache.overall_mshr_misses::total       145912                       # number of overall MSHR misses
system.cpu.icache.demand_mshr_miss_latency::.cpu.inst   1836590999                       # number of demand (read+write) MSHR miss cycles
system.cpu.icache.demand_mshr_miss_latency::total   1836590999                       # number of demand (read+write) MSHR miss cycles
system.cpu.icache.overall_mshr_miss_latency::.cpu.inst   1836590999                       # number of overall MSHR miss cycles
system.cpu.icache.overall_mshr_miss_latency::total   1836590999                       # number of overall MSHR miss cycles
system.cpu.icache.demand_mshr_miss_rate::.cpu.inst     0.008400                       # mshr miss rate for demand accesses
system.cpu.icache.demand_mshr_miss_rate::total     0.008400                       # mshr miss rate for demand accesses
system.cpu.icache.overall_mshr_miss_rate::.cpu.inst     0.008400                       # mshr miss rate for overall accesses
system.cpu.icache.overall_mshr_miss_rate::total     0.008400                       # mshr miss rate for overall accesses
system.cpu.icache.demand_avg_mshr_miss_latency::.cpu.inst 12586.977075                       # average overall mshr miss latency
system.cpu.icache.demand_avg_mshr_miss_latency::total 12586.977075                       # average overall mshr miss latency
system.cpu.icache.overall_avg_mshr_miss_latency::.cpu.inst 12586.977075                       # average overall mshr miss latency
system.cpu.icache.overall_avg_mshr_miss_latency::total 12586.977075                       # average overall mshr miss latency
system.cpu.icache.replacements                 145404                       # number of replacements
system.cpu.icache.ReadReq_hits::.cpu.inst     17224693                       # number of ReadReq hits
system.cpu.icache.ReadReq_hits::total        17224693                       # number of ReadReq hits
system.cpu.icache.ReadReq_misses::.cpu.inst       146685                       # number of ReadReq misses
system.cpu.icache.ReadReq_misses::total        146685                       # number of ReadReq misses
system.cpu.icache.ReadReq_miss_latency::.cpu.inst   2017999499                       # number of ReadReq miss cycles
system.cpu.icache.ReadReq_miss_latency::total   2017999499                       # number of ReadReq miss cycles
system.cpu.icache.ReadReq_accesses::.cpu.inst     17371378                       # number of ReadReq accesses(hits+misses)
system.cpu.icache.ReadReq_accesses::total     17371378                       # number of ReadReq accesses(hits+misses)
system.cpu.icache.ReadReq_miss_rate::.cpu.inst     0.008444                       # miss rate for ReadReq accesses
system.cpu.icache.ReadReq_miss_rate::total     0.008444                       # miss rate for ReadReq accesses
system.cpu.icache.ReadReq_avg_miss_latency::.cpu.inst 13757.367822                       # average ReadReq miss latency
system.cpu.icache.ReadReq_avg_miss_latency::total 13757.367822                       # average ReadReq miss latency
system.cpu.icache.ReadReq_mshr_hits::.cpu.inst          773                       # number of ReadReq MSHR hits
system.cpu.icache.ReadReq_mshr_hits::total          773                       # number of ReadReq MSHR hits
system.cpu.icache.ReadReq_mshr_misses::.cpu.inst       145912                       # number of ReadReq MSHR misses
system.cpu.icache.ReadReq_mshr_misses::total       145912                       # number of ReadReq MSHR misses
system.cpu.icache.ReadReq_mshr_miss_latency::.cpu.inst   1836590999                       # number of ReadReq MSHR miss cycles
system.cpu.icache.ReadReq_mshr_miss_latency::total   1836590999                       # number of ReadReq MSHR miss cycles
system.cpu.icache.ReadReq_mshr_miss_rate::.cpu.inst     0.008400                       # mshr miss rate for ReadReq accesses
system.cpu.icache.ReadReq_mshr_miss_rate::total     0.008400                       # mshr miss rate for ReadReq accesses
system.cpu.icache.ReadReq_avg_mshr_miss_latency::.cpu.inst 12586.977075                       # average ReadReq mshr miss latency
system.cpu.icache.ReadReq_avg_mshr_miss_latency::total 12586.977075                       # average ReadReq mshr miss latency
system.cpu.icache.power_state.pwrStateResidencyTicks::UNDEFINED  42301267500                       # Cumulative time (in ticks) in various power states
system.cpu.icache.tags.tagsinuse           506.629411                       # Cycle average of tags in use
system.cpu.icache.tags.total_refs            17370605                       # Total number of references to valid blocks.
system.cpu.icache.tags.sampled_refs            145912                       # Sample count of references to valid blocks.
system.cpu.icache.tags.avg_refs            119.048502                       # Average number of references to valid blocks.
system.cpu.icache.tags.warmup_cycle             79500                       # Cycle when the warmup percentage was hit.
system.cpu.icache.tags.occ_blocks::.cpu.inst   506.629411                       # Average occupied blocks per requestor
system.cpu.icache.tags.occ_percent::.cpu.inst     0.989511                       # Average percentage of cache occupancy
system.cpu.icache.tags.occ_percent::total     0.989511                       # Average percentage of cache occupancy
system.cpu.icache.tags.occ_task_id_blocks::1024          507                       # Occupied blocks per task id
system.cpu.icache.tags.age_task_id_blocks_1024::0            2                       # Occupied blocks per task id
system.cpu.icache.tags.age_task_id_blocks_1024::1            2                       # Occupied blocks per task id
system.cpu.icache.tags.age_task_id_blocks_1024::3            2                       # Occupied blocks per task id
system.cpu.icache.tags.age_task_id_blocks_1024::4          501                       # Occupied blocks per task id
system.cpu.icache.tags.occ_task_id_percent::1024     0.990234                       # Percentage of cache occupancy per task id
system.cpu.icache.tags.tag_accesses          34888668                       # Number of tag accesses
system.cpu.icache.tags.data_accesses         34888668                       # Number of data accesses
system.cpu.icache.tags.power_state.pwrStateResidencyTicks::UNDEFINED  42301267500                       # Cumulative time (in ticks) in various power states
system.cpu.interrupts.clk_domain.clock           8000                       # Clock period in ticks
system.cpu.itb.rdAccesses                           0                       # TLB accesses on read requests
system.cpu.itb.wrAccesses                    17371761                       # TLB accesses on write requests
system.cpu.itb.rdMisses                             0                       # TLB misses on read requests
system.cpu.itb.wrMisses                           517                       # TLB misses on write requests
system.cpu.itb.walker.power_state.pwrStateResidencyTicks::UNDEFINED  42301267500                       # Cumulative time (in ticks) in various power states
system.cpu.itb_walker_cache.blocked_cycles::no_mshrs            0                       # number of cycles access was blocked
system.cpu.itb_walker_cache.blocked_cycles::no_targets            0                       # number of cycles access was blocked
system.cpu.itb_walker_cache.blocked::no_mshrs            0                       # number of cycles access was blocked
system.cpu.itb_walker_cache.blocked::no_targets            0                       # number of cycles access was blocked
system.cpu.itb_walker_cache.avg_blocked_cycles::no_mshrs          nan                       # average number of cycles each access was blocked
system.cpu.itb_walker_cache.avg_blocked_cycles::no_targets          nan                       # average number of cycles each access was blocked
system.cpu.itb_walker_cache.replacements            0                       # number of replacements
system.cpu.itb_walker_cache.power_state.pwrStateResidencyTicks::UNDEFINED  42301267500                       # Cumulative time (in ticks) in various power states
system.cpu.itb_walker_cache.tags.tagsinuse            0                       # Cycle average of tags in use
system.cpu.itb_walker_cache.tags.total_refs            0                       # Total number of references to valid blocks.
system.cpu.itb_walker_cache.tags.sampled_refs            0                       # Sample count of references to valid blocks.
system.cpu.itb_walker_cache.tags.avg_refs          nan                       # Average number of references to valid blocks.
system.cpu.itb_walker_cache.tags.warmup_cycle            0                       # Cycle when the warmup percentage was hit.
system.cpu.itb_walker_cache.tags.tag_accesses            0                       # Number of tag accesses
system.cpu.itb_walker_cache.tags.data_accesses            0                       # Number of data accesses
system.cpu.itb_walker_cache.tags.power_state.pwrStateResidencyTicks::UNDEFINED  42301267500                       # Cumulative time (in ticks) in various power states
system.cpu.lsq0.forwLoads                     4067468                       # Number of loads that had data forwarded from stores
system.cpu.lsq0.squashedLoads                 1576336                       # Number of loads squashed
system.cpu.lsq0.ignoredResponses                25445                       # Number of memory responses ignored because the instruction is squashed
system.cpu.lsq0.memOrderViolation                1179                       # Number of memory ordering violations
system.cpu.lsq0.squashedStores                 711113                       # Number of stores squashed
system.cpu.lsq0.rescheduledLoads                48032                       # Number of loads that were rescheduled
system.cpu.lsq0.blockedByCache                    443                       # Number of times an access to memory failed due to the cache being blocked
system.cpu.power_state.pwrStateResidencyTicks::ON  42301267500                       # Cumulative time (in ticks) in various power states
system.cpu.rename.squashCycles                 537456                       # Number of cycles rename is squashing
system.cpu.rename.idleCycles                 21192686                       # Number of cycles rename is idle
system.cpu.rename.blockCycles                 9869360                       # Number of cycles rename is blocking
system.cpu.rename.serializeStallCycles           2476                       # count of cycles rename stalledfor serializing inst
system.cpu.rename.runCycles                  32331878                       # Number of cycles rename is running
system.cpu.rename.unblockCycles              20582537                       # Number of cycles rename is unblocking
system.cpu.rename.renamedInsts              207984880                       # Number of instructions processed by rename
system.cpu.rename.ROBFullEvents                 64701                       # Number of times rename has blocked due to ROB full
system.cpu.rename.IQFullEvents                 719558                       # Number of times rename has blocked due to IQ full
system.cpu.rename.LQFullEvents                    360                       # Number of times rename has blocked due to LQ full
system.cpu.rename.SQFullEvents               19503621                       # Number of times rename has blocked due to SQ full
system.cpu.rename.renamedOperands           231048361                       # Number of destination operands rename has renamed
system.cpu.rename.lookups                   543283432                       # Number of register rename lookups that rename has made
system.cpu.rename.intLookups                318235627                       # Number of integer rename lookups
system.cpu.rename.fpLookups                   6542193                       # Number of floating rename lookups
system.cpu.rename.committedMaps             208332735                       # Number of HB maps that are committed
system.cpu.rename.undoneMaps                 22715568                       # Number of HB maps that are undone due to squashing
system.cpu.rename.serializing                      55                       # count of serializing insts renamed
system.cpu.rename.tempSerializing                  23                       # count of temporary serializing insts renamed
system.cpu.rename.skidInsts                  11476244                       # count of insts added to the skid buffer
system.cpu.rob.reads                        275810876                       # The number of ROB reads
system.cpu.rob.writes                       408464353                       # The number of ROB writes
system.cpu.thread_0.numInsts                100000001                       # Number of Instructions committed
system.cpu.thread_0.numOps                  188377356                       # Number of Ops committed
system.cpu.thread_0.numMemRefs                      0                       # Number of Memory References
system.cpu_clk_domain.clock                       500                       # Clock period in ticks
system.cpu_voltage_domain.voltage                   1                       # Voltage in Volts
system.l2.demand_hits::.cpu.inst               144540                       # number of demand (read+write) hits
system.l2.demand_hits::.cpu.data                50024                       # number of demand (read+write) hits
system.l2.demand_hits::total                   194564                       # number of demand (read+write) hits
system.l2.overall_hits::.cpu.inst              144540                       # number of overall hits
system.l2.overall_hits::.cpu.data               50024                       # number of overall hits
system.l2.overall_hits::total                  194564                       # number of overall hits
system.l2.demand_misses::.cpu.inst               1371                       # number of demand (read+write) misses
system.l2.demand_misses::.cpu.data             209129                       # number of demand (read+write) misses
system.l2.demand_misses::total                 210500                       # number of demand (read+write) misses
system.l2.overall_misses::.cpu.inst              1371                       # number of overall misses
system.l2.overall_misses::.cpu.data            209129                       # number of overall misses
system.l2.overall_misses::total                210500                       # number of overall misses
system.l2.demand_miss_latency::.cpu.inst     95977500                       # number of demand (read+write) miss cycles
system.l2.demand_miss_latency::.cpu.data  17367566500                       # number of demand (read+write) miss cycles
system.l2.demand_miss_latency::total      17463544000                       # number of demand (read+write) miss cycles
system.l2.overall_miss_latency::.cpu.inst     95977500                       # number of overall miss cycles
system.l2.overall_miss_latency::.cpu.data  17367566500                       # number of overall miss cycles
system.l2.overall_miss_latency::total     17463544000                       # number of overall miss cycles
system.l2.demand_accesses::.cpu.inst           145911                       # number of demand (read+write) accesses
system.l2.demand_accesses::.cpu.data           259153                       # number of demand (read+write) accesses
system.l2.demand_accesses::total               405064                       # number of demand (read+write) accesses
system.l2.overall_accesses::.cpu.inst          145911                       # number of overall (read+write) accesses
system.l2.overall_accesses::.cpu.data          259153                       # number of overall (read+write) accesses
system.l2.overall_accesses::total              405064                       # number of overall (read+write) accesses
system.l2.demand_miss_rate::.cpu.inst        0.009396                       # miss rate for demand accesses
system.l2.demand_miss_rate::.cpu.data        0.806971                       # miss rate for demand accesses
system.l2.demand_miss_rate::total            0.519671                       # miss rate for demand accesses
system.l2.overall_miss_rate::.cpu.inst       0.009396                       # miss rate for overall accesses
system.l2.overall_miss_rate::.cpu.data       0.806971                       # miss rate for overall accesses
system.l2.overall_miss_rate::total           0.519671                       # miss rate for overall accesses
system.l2.demand_avg_miss_latency::.cpu.inst 70005.470460                       # average overall miss latency
system.l2.demand_avg_miss_latency::.cpu.data 83047.145542                       # average overall miss latency
system.l2.demand_avg_miss_latency::total 82962.204276                       # average overall miss latency
[...]
system.mem_ctrls.dram.readBursts               210495                       # Number of DRAM read bursts
system.mem_ctrls.dram.writeBursts              198724                       # Number of DRAM write bursts
system.mem_ctrls.dram.perBankRdBursts::0        12917                       # Per bank write bursts
system.mem_ctrls.dram.perBankRdBursts::1        13103                       # Per bank write bursts
system.mem_ctrls.dram.perBankRdBursts::2        13065                       # Per bank write bursts
system.mem_ctrls.dram.perBankRdBursts::3        13209                       # Per bank write bursts
system.mem_ctrls.dram.perBankRdBursts::4        13263                       # Per bank write bursts
system.mem_ctrls.dram.perBankRdBursts::5        13366                       # Per bank write bursts
system.mem_ctrls.dram.perBankRdBursts::6        13125                       # Per bank write bursts
system.mem_ctrls.dram.perBankRdBursts::7        13200                       # Per bank write bursts
system.mem_ctrls.dram.perBankRdBursts::8        13281                       # Per bank write bursts
system.mem_ctrls.dram.perBankRdBursts::9        13083                       # Per bank write bursts
system.mem_ctrls.dram.perBankRdBursts::10        13037                       # Per bank write bursts
system.mem_ctrls.dram.perBankRdBursts::11        13114                       # Per bank write bursts
system.mem_ctrls.dram.perBankRdBursts::12        13209                       # Per bank write bursts
system.mem_ctrls.dram.perBankRdBursts::13        13256                       # Per bank write bursts
system.mem_ctrls.dram.perBankRdBursts::14        13114                       # Per bank write bursts
system.mem_ctrls.dram.perBankRdBursts::15        13153                       # Per bank write bursts
system.mem_ctrls.dram.perBankWrBursts::0        12178                       # Per bank write bursts
system.mem_ctrls.dram.perBankWrBursts::1        12311                       # Per bank write bursts
system.mem_ctrls.dram.perBankWrBursts::2        12395                       # Per bank write bursts
system.mem_ctrls.dram.perBankWrBursts::3        12501                       # Per bank write bursts
system.mem_ctrls.dram.perBankWrBursts::4        12479                       # Per bank write bursts
system.mem_ctrls.dram.perBankWrBursts::5        12564                       # Per bank write bursts
system.mem_ctrls.dram.perBankWrBursts::6        12385                       # Per bank write bursts
system.mem_ctrls.dram.perBankWrBursts::7        12466                       # Per bank write bursts
system.mem_ctrls.dram.perBankWrBursts::8        12540                       # Per bank write bursts
system.mem_ctrls.dram.perBankWrBursts::9        12386                       # Per bank write bursts
system.mem_ctrls.dram.perBankWrBursts::10        12317                       # Per bank write bursts
system.mem_ctrls.dram.perBankWrBursts::11        12436                       # Per bank write bursts
system.mem_ctrls.dram.perBankWrBursts::12        12433                       # Per bank write bursts
system.mem_ctrls.dram.perBankWrBursts::13        12479                       # Per bank write bursts
system.mem_ctrls.dram.perBankWrBursts::14        12388                       # Per bank write bursts
system.mem_ctrls.dram.perBankWrBursts::15        12466                       # Per bank write bursts
system.mem_ctrls.dram.totQLat              4429578750                       # Total ticks spent queuing
system.mem_ctrls.dram.totBusLat            1052475000                       # Total ticks spent in databus transfers
system.mem_ctrls.dram.totMemAccLat         8376360000                       # Total ticks spent from burst creation until serviced by the DRAM
system.mem_ctrls.dram.avgQLat                21043.63                       # Average queueing delay per DRAM burst
system.mem_ctrls.dram.avgBusLat               5000.00                       # Average bus latency per DRAM burst
system.mem_ctrls.dram.avgMemAccLat           39793.63                       # Average memory access latency per DRAM burst
system.mem_ctrls.dram.readRowHits               77928                       # Number of row buffer hits during reads
system.mem_ctrls.dram.writeRowHits              91198                       # Number of row buffer hits during writes
system.mem_ctrls.dram.readRowHitRate            37.02                       # Row buffer hit rate for reads
system.mem_ctrls.dram.writeRowHitRate           45.89                       # Row buffer hit rate for writes
system.mem_ctrls.dram.bytesPerActivate::samples       240084                       # Bytes accessed per row activation
system.mem_ctrls.dram.bytesPerActivate::mean   109.084221                       # Bytes accessed per row activation
system.mem_ctrls.dram.bytesPerActivate::gmean    86.729263                       # Bytes accessed per row activation
system.mem_ctrls.dram.bytesPerActivate::stdev   110.421745                       # Bytes accessed per row activation
system.mem_ctrls.dram.bytesPerActivate::0-127       174046     72.49%     72.49% # Bytes accessed per row activation
system.mem_ctrls.dram.bytesPerActivate::128-255        45384     18.90%     91.40% # Bytes accessed per row activation
system.mem_ctrls.dram.bytesPerActivate::256-383         9640      4.02%     95.41% # Bytes accessed per row activation
system.mem_ctrls.dram.bytesPerActivate::384-511         5194      2.16%     97.58% # Bytes accessed per row activation
system.mem_ctrls.dram.bytesPerActivate::512-639         3374      1.41%     98.98% # Bytes accessed per row activation
system.mem_ctrls.dram.bytesPerActivate::640-767         1351      0.56%     99.54% # Bytes accessed per row activation
system.mem_ctrls.dram.bytesPerActivate::768-895          604      0.25%     99.80% # Bytes accessed per row activation
system.mem_ctrls.dram.bytesPerActivate::896-1023          216      0.09%     99.89% # Bytes accessed per row activation
system.mem_ctrls.dram.bytesPerActivate::1024-1151          275      0.11%    100.00% # Bytes accessed per row activation
system.mem_ctrls.dram.bytesPerActivate::total       240084                       # Bytes accessed per row activation
system.mem_ctrls.dram.bytesRead              13471680                       # Total number of bytes read from DRAM
system.mem_ctrls.dram.bytesWritten           12718336                       # Total number of bytes written to DRAM
system.mem_ctrls.dram.avgRdBW              318.469890                       # Average DRAM read bandwidth in MiBytes/s
system.mem_ctrls.dram.avgWrBW              300.660873                       # Average DRAM write bandwidth in MiBytes/s
system.mem_ctrls.dram.peakBW                 12800.00                       # Theoretical peak bandwidth in MiByte/s
system.mem_ctrls.dram.busUtil                    4.84                       # Data bus utilization in percentage
system.mem_ctrls.dram.busUtilRead                2.49                       # Data bus utilization in percentage for reads
system.mem_ctrls.dram.busUtilWrite               2.35                       # Data bus utilization in percentage for writes
system.mem_ctrls.dram.pageHitRate               41.33                       # Row buffer hit rate, read and write combined
system.mem_ctrls.dram.power_state.pwrStateResidencyTicks::UNDEFINED  42301267500                       # Cumulative time (in ticks) in various power states
system.mem_ctrls.dram.rank0.actEnergy       858535020                       # Energy for activate commands per rank (pJ)
system.mem_ctrls.dram.rank0.preEnergy       456307005                       # Energy for precharge commands per rank (pJ)
system.mem_ctrls.dram.rank0.readEnergy      751470720                       # Energy for read commands per rank (pJ)
system.mem_ctrls.dram.rank0.writeEnergy     518236380                       # Energy for write commands per rank (pJ)
system.mem_ctrls.dram.rank0.refreshEnergy 3338724480.000000                       # Energy for refresh commands per rank (pJ)
system.mem_ctrls.dram.rank0.actBackEnergy  18210202110                       # Energy for active background per rank (pJ)
system.mem_ctrls.dram.rank0.preBackEnergy    908779680                       # Energy for precharge background per rank (pJ)
system.mem_ctrls.dram.rank0.actPowerDownEnergy            0                       # Energy for active power-down per rank (pJ)
system.mem_ctrls.dram.rank0.prePowerDownEnergy            0                       # Energy for precharge power-down per rank (pJ)
system.mem_ctrls.dram.rank0.selfRefreshEnergy            0                       # Energy for self refresh per rank (pJ)
system.mem_ctrls.dram.rank0.totalEnergy   25042255395                       # Total energy per rank (pJ)
system.mem_ctrls.dram.rank0.averagePower   591.997755                       # Core power per rank (mW)
system.mem_ctrls.dram.rank0.totalIdleTime            0                       # Total Idle time Per DRAM Rank
system.mem_ctrls.dram.rank0.pwrStateTime::IDLE   2209081750                       # Time in different power states
system.mem_ctrls.dram.rank0.pwrStateTime::REF   1412320000                       # Time in different power states
system.mem_ctrls.dram.rank0.pwrStateTime::SREF            0                       # Time in different power states
system.mem_ctrls.dram.rank0.pwrStateTime::PRE_PDN            0                       # Time in different power states
system.mem_ctrls.dram.rank0.pwrStateTime::ACT  38679865750                       # Time in different power states
system.mem_ctrls.dram.rank0.pwrStateTime::ACT_PDN            0                       # Time in different power states
system.mem_ctrls.dram.rank1.actEnergy       855729000                       # Energy for activate commands per rank (pJ)
system.mem_ctrls.dram.rank1.preEnergy       454811775                       # Energy for precharge commands per rank (pJ)
system.mem_ctrls.dram.rank1.readEnergy      751463580                       # Energy for read commands per rank (pJ)
system.mem_ctrls.dram.rank1.writeEnergy     519102900                       # Energy for write commands per rank (pJ)
system.mem_ctrls.dram.rank1.refreshEnergy 3338724480.000000                       # Energy for refresh commands per rank (pJ)
system.mem_ctrls.dram.rank1.actBackEnergy  18168848610                       # Energy for active background per rank (pJ)
system.mem_ctrls.dram.rank1.preBackEnergy    943603680                       # Energy for precharge background per rank (pJ)
system.mem_ctrls.dram.rank1.actPowerDownEnergy            0                       # Energy for active power-down per rank (pJ)
system.mem_ctrls.dram.rank1.prePowerDownEnergy            0                       # Energy for precharge power-down per rank (pJ)
system.mem_ctrls.dram.rank1.selfRefreshEnergy            0                       # Energy for self refresh per rank (pJ)
system.mem_ctrls.dram.rank1.totalEnergy   25032284025                       # Total energy per rank (pJ)
system.mem_ctrls.dram.rank1.averagePower   591.762032                       # Core power per rank (mW)
system.mem_ctrls.dram.rank1.totalIdleTime            0                       # Total Idle time Per DRAM Rank
system.mem_ctrls.dram.rank1.pwrStateTime::IDLE   2299125250                       # Time in different power states
system.mem_ctrls.dram.rank1.pwrStateTime::REF   1412320000                       # Time in different power states
system.mem_ctrls.dram.rank1.pwrStateTime::SREF            0                       # Time in different power states
system.mem_ctrls.dram.rank1.pwrStateTime::PRE_PDN            0                       # Time in different power states
system.mem_ctrls.dram.rank1.pwrStateTime::ACT  38589822250                       # Time in different power states
system.mem_ctrls.dram.rank1.pwrStateTime::ACT_PDN            0                       # Time in different power states
system.mem_ctrls.power_state.pwrStateResidencyTicks::UNDEFINED  42301267500                       # Cumulative time (in ticks) in various power states
system.membus.trans_dist::ReadResp              49190                       # Transaction distribution
system.membus.trans_dist::WritebackDirty       198752                       # Transaction distribution
system.membus.trans_dist::CleanEvict             3030                       # Transaction distribution
system.membus.trans_dist::ReadExReq            161310                       # Transaction distribution
system.membus.trans_dist::ReadExResp           161310                       # Transaction distribution
system.membus.trans_dist::ReadSharedReq         49190                       # Transaction distribution
system.membus.pkt_count_system.l2.mem_side_port::system.mem_ctrls.port       622782                       # Packet count per connected requestor and responder (bytes)
system.membus.pkt_count_system.l2.mem_side_port::total       622782                       # Packet count per connected requestor and responder (bytes)
system.membus.pkt_count::total                 622782                       # Packet count per connected requestor and responder (bytes)
system.membus.pkt_size_system.l2.mem_side_port::system.mem_ctrls.port     26192128                       # Cumulative packet size per connected requestor and responder (bytes)
system.membus.pkt_size_system.l2.mem_side_port::total     26192128                       # Cumulative packet size per connected requestor and responder (bytes)
system.membus.pkt_size::total                26192128                       # Cumulative packet size per connected requestor and responder (bytes)
system.membus.snoops                                0                       # Total snoops (count)
system.membus.snoopTraffic                          0                       # Total snoop traffic (bytes)
system.membus.snoop_fanout::samples            210500                       # Request fanout histogram
system.membus.snoop_fanout::mean                    0                       # Request fanout histogram
system.membus.snoop_fanout::stdev                   0                       # Request fanout histogram
system.membus.snoop_fanout::underflows              0      0.00%      0.00% # Request fanout histogram
system.membus.snoop_fanout::0                  210500    100.00%    100.00% # Request fanout histogram
system.membus.snoop_fanout::1                       0      0.00%    100.00% # Request fanout histogram
system.membus.snoop_fanout::overflows               0      0.00%    100.00% # Request fanout histogram
system.membus.snoop_fanout::min_value               0                       # Request fanout histogram
system.membus.snoop_fanout::max_value               0                       # Request fanout histogram
system.membus.snoop_fanout::total              210500                       # Request fanout histogram
system.membus.power_state.pwrStateResidencyTicks::UNDEFINED  42301267500                       # Cumulative time (in ticks) in various power states
system.membus.reqLayer2.occupancy           301822500                       # Layer occupancy (ticks)
system.membus.reqLayer2.utilization               0.7                       # Layer utilization (%)
system.membus.respLayer1.occupancy          263125000                       # Layer occupancy (ticks)
system.membus.respLayer1.utilization              0.6                       # Layer utilization (%)
system.tol2bus.trans_dist::ReadResp            223924                       # Transaction distribution
system.tol2bus.trans_dist::WritebackDirty       441929                       # Transaction distribution
system.tol2bus.trans_dist::WritebackClean       145404                       # Transaction distribution
system.tol2bus.trans_dist::CleanEvict           19334                       # Transaction distribution
system.tol2bus.trans_dist::UpgradeReq               1                       # Transaction distribution
system.tol2bus.trans_dist::UpgradeResp              1                       # Transaction distribution
system.tol2bus.trans_dist::ReadExReq           181141                       # Transaction distribution
system.tol2bus.trans_dist::ReadExResp          181141                       # Transaction distribution
system.tol2bus.trans_dist::ReadCleanReq        145912                       # Transaction distribution
system.tol2bus.trans_dist::ReadSharedReq        78012                       # Transaction distribution
system.tol2bus.pkt_count_system.cpu.icache.mem_side_port::system.l2.cpu_side_port       437227                       # Packet count per connected requestor and responder (bytes)
system.tol2bus.pkt_count_system.cpu.dcache.mem_side_port::system.l2.cpu_side_port       776949                       # Packet count per connected requestor and responder (bytes)
system.tol2bus.pkt_count::total               1214176                       # Packet count per connected requestor and responder (bytes)
system.tol2bus.pkt_size_system.cpu.icache.mem_side_port::system.l2.cpu_side_port     18644160                       # Cumulative packet size per connected requestor and responder (bytes)
system.tol2bus.pkt_size_system.cpu.dcache.mem_side_port::system.l2.cpu_side_port     32149120                       # Cumulative packet size per connected requestor and responder (bytes)
system.tol2bus.pkt_size::total               50793280                       # Cumulative packet size per connected requestor and responder (bytes)
system.tol2bus.snoops                          202623                       # Total snoops (count)
system.tol2bus.snoopTraffic                  12720192                       # Total snoop traffic (bytes)
system.tol2bus.snoop_fanout::samples           607688                       # Request fanout histogram
system.tol2bus.snoop_fanout::mean            0.001521                       # Request fanout histogram
system.tol2bus.snoop_fanout::stdev           0.039384                       # Request fanout histogram
system.tol2bus.snoop_fanout::underflows             0      0.00%      0.00% # Request fanout histogram
system.tol2bus.snoop_fanout::0                 606774     99.85%     99.85% # Request fanout histogram
system.tol2bus.snoop_fanout::1                    904      0.15%    100.00% # Request fanout histogram
system.tol2bus.snoop_fanout::2                     10      0.00%    100.00% # Request fanout histogram
system.tol2bus.snoop_fanout::3                      0      0.00%    100.00% # Request fanout histogram
system.tol2bus.snoop_fanout::4                      0      0.00%    100.00% # Request fanout histogram
system.tol2bus.snoop_fanout::overflows              0      0.00%    100.00% # Request fanout histogram
system.tol2bus.snoop_fanout::min_value              0                       # Request fanout histogram
system.tol2bus.snoop_fanout::max_value              2                       # Request fanout histogram
system.tol2bus.snoop_fanout::total             607688                       # Request fanout histogram
system.tol2bus.power_state.pwrStateResidencyTicks::UNDEFINED  42301267500                       # Cumulative time (in ticks) in various power states
system.tol2bus.reqLayer0.occupancy          793136500                       # Layer occupancy (ticks)
system.tol2bus.reqLayer0.utilization              1.9                       # Layer utilization (%)
system.tol2bus.respLayer0.occupancy         218876483                       # Layer occupancy (ticks)
system.tol2bus.respLayer0.utilization             0.5                       # Layer utilization (%)
system.tol2bus.respLayer1.occupancy         388730000                       # Layer occupancy (ticks)
system.tol2bus.respLayer1.utilization             0.9                       # Layer utilization (%)
system.voltage_domain.voltage                       1                       # Voltage in Volts

---------- End Simulation Statistics   ----------
