
---------- Begin Simulation Statistics ----------
final_tick                                 8003048500                       # Number of ticks from beginning of simulation (restored from checkpoints and never reset)
host_inst_rate                                  55129                       # Simulator instruction rate (inst/s)
host_mem_usage                                 811452                       # Number of bytes of host memory used
host_op_rate                                   104597                       # Simulator op (including micro ops) rate (op/s)
host_seconds                                   181.39                       # Real time elapsed on the host
host_tick_rate                               44120217                       # Simulator tick rate (ticks/s)
sim_freq                                 1000000000000                       # Frequency of simulated ticks
sim_insts                                    10000000                       # Number of instructions simulated
sim_ops                                      18973114                       # Number of ops (including micro ops) simulated
sim_seconds                                  0.008003                       # Number of seconds simulated
sim_ticks                                  8003048500                       # Number of ticks simulated
system.cpu.cc_regfile_reads                  11547699                       # number of cc regfile reads
system.cpu.cc_regfile_writes                  6983436                       # number of cc regfile writes
system.cpu.committedInsts                    10000000                       # Number of Instructions Simulated
system.cpu.committedOps                      18973114                       # Number of Ops (including micro ops) Simulated
system.cpu.cpi                               1.600610                       # CPI: Cycles Per Instruction
system.cpu.cpi_total                         1.600610                       # CPI: Total CPI of All Threads
system.cpu.fp_regfile_reads                    476401                       # number of floating regfile reads
system.cpu.fp_regfile_writes                   260483                       # number of floating regfile writes
system.cpu.idleCycles                         1511282                       # Total number of cycles that the CPU has spent unscheduled due to idling
system.cpu.iew.branchMispredicts               216109                       # Number of branch mispredicts detected at execute
system.cpu.iew.exec_branches                  2409067                       # Number of branches executed
system.cpu.iew.exec_nop                             0                       # number of nop insts executed
system.cpu.iew.exec_rate                     1.439353                       # Inst execution rate
system.cpu.iew.exec_refs                      4692667                       # number of memory reference insts executed
system.cpu.iew.exec_stores                    1735265                       # Number of stores executed
system.cpu.iew.exec_swp                             0                       # number of swp insts executed
system.cpu.iew.iewBlockCycles                  915119                       # Number of cycles IEW is blocking
system.cpu.iew.iewDispLoadInsts               3198467                       # Number of dispatched load instructions
system.cpu.iew.iewDispNonSpecInsts               1280                       # Number of dispatched non-speculative instructions
system.cpu.iew.iewDispSquashedInsts             18817                       # Number of squashed instructions skipped by dispatch
system.cpu.iew.iewDispStoreInsts              1913347                       # Number of dispatched store instructions
system.cpu.iew.iewDispatchedInsts            24893552                       # Number of instructions dispatched to IQ
system.cpu.iew.iewExecLoadInsts               2957402                       # Number of load instructions executed
system.cpu.iew.iewExecSquashedInsts            316819                       # Number of squashed instructions skipped in execute
system.cpu.iew.iewExecutedInsts              23038428                       # Number of executed instructions
system.cpu.iew.iewIQFullEvents                   6228                       # Number of times the IQ has become full, causing a stall
system.cpu.iew.iewIdleCycles                        0                       # Number of cycles IEW is idle
system.cpu.iew.iewLSQFullEvents                431493                       # Number of times the LSQ has become full, causing a stall
system.cpu.iew.iewSquashCycles                 186662                       # Number of cycles IEW is squashing
system.cpu.iew.iewUnblockCycles                440598                       # Number of cycles IEW is unblocking
system.cpu.iew.memOrderViolationEvents           3969                       # Number of memory order violations
system.cpu.iew.predictedNotTakenIncorrect       157643                       # Number of branches that were predicted not taken incorrectly
system.cpu.iew.predictedTakenIncorrect          58466                       # Number of branches that were predicted taken incorrectly
system.cpu.iew.wb_consumers                  25718914                       # num instructions consuming a value
system.cpu.iew.wb_count                      22821570                       # cumulative count of insts written-back
system.cpu.iew.wb_fanout                     0.635123                       # average fanout of values written-back
system.cpu.iew.wb_producers                  16334674                       # num instructions producing a value
system.cpu.iew.wb_rate                       1.425805                       # insts written-back per cycle
system.cpu.iew.wb_sent                       22931883                       # cumulative count of insts sent to commit
system.cpu.int_regfile_reads                 32970510                       # number of integer regfile reads
system.cpu.int_regfile_writes                18188174                       # number of integer regfile writes
system.cpu.ipc                               0.624762                       # IPC: Instructions Per Cycle
system.cpu.ipc_total                         0.624762                       # IPC: Total IPC of All Threads
system.cpu.iq.FU_type_0::No_OpClass            391325      1.68%      1.68% # Type of FU issued
system.cpu.iq.FU_type_0::IntAlu              18005950     77.10%     78.77% # Type of FU issued
system.cpu.iq.FU_type_0::IntMult                14114      0.06%     78.83% # Type of FU issued
system.cpu.iq.FU_type_0::IntDiv                  6516      0.03%     78.86% # Type of FU issued
system.cpu.iq.FU_type_0::FloatAdd               16827      0.07%     78.93% # Type of FU issued
system.cpu.iq.FU_type_0::FloatCmp                   0      0.00%     78.93% # Type of FU issued
system.cpu.iq.FU_type_0::FloatCvt                  96      0.00%     78.93% # Type of FU issued
system.cpu.iq.FU_type_0::FloatMult                  0      0.00%     78.93% # Type of FU issued
system.cpu.iq.FU_type_0::FloatMultAcc               0      0.00%     78.93% # Type of FU issued
system.cpu.iq.FU_type_0::FloatDiv                   0      0.00%     78.93% # Type of FU issued
system.cpu.iq.FU_type_0::FloatMisc                  0      0.00%     78.93% # Type of FU issued
system.cpu.iq.FU_type_0::FloatSqrt                  0      0.00%     78.93% # Type of FU issued
system.cpu.iq.FU_type_0::SimdAdd                 3520      0.02%     78.95% # Type of FU issued
system.cpu.iq.FU_type_0::SimdAddAcc                 0      0.00%     78.95% # Type of FU issued
system.cpu.iq.FU_type_0::SimdAlu                36004      0.15%     79.10% # Type of FU issued
system.cpu.iq.FU_type_0::SimdCmp                   38      0.00%     79.10% # Type of FU issued
system.cpu.iq.FU_type_0::SimdCvt                22457      0.10%     79.20% # Type of FU issued
system.cpu.iq.FU_type_0::SimdMisc               60722      0.26%     79.46% # Type of FU issued
system.cpu.iq.FU_type_0::SimdMult                   0      0.00%     79.46% # Type of FU issued
system.cpu.iq.FU_type_0::SimdMultAcc                0      0.00%     79.46% # Type of FU issued
system.cpu.iq.FU_type_0::SimdShift               3122      0.01%     79.47% # Type of FU issued
system.cpu.iq.FU_type_0::SimdShiftAcc               0      0.00%     79.47% # Type of FU issued
system.cpu.iq.FU_type_0::SimdDiv                    0      0.00%     79.47% # Type of FU issued
system.cpu.iq.FU_type_0::SimdSqrt                   0      0.00%     79.47% # Type of FU issued
system.cpu.iq.FU_type_0::SimdFloatAdd              14      0.00%     79.47% # Type of FU issued
system.cpu.iq.FU_type_0::SimdFloatAlu               0      0.00%     79.47% # Type of FU issued
system.cpu.iq.FU_type_0::SimdFloatCmp               0      0.00%     79.47% # Type of FU issued
system.cpu.iq.FU_type_0::SimdFloatCvt              90      0.00%     79.47% # Type of FU issued
system.cpu.iq.FU_type_0::SimdFloatDiv               8      0.00%     79.47% # Type of FU issued
system.cpu.iq.FU_type_0::SimdFloatMisc              0      0.00%     79.47% # Type of FU issued
system.cpu.iq.FU_type_0::SimdFloatMult             20      0.00%     79.47% # Type of FU issued
system.cpu.iq.FU_type_0::SimdFloatMultAcc            0      0.00%     79.47% # Type of FU issued
system.cpu.iq.FU_type_0::SimdFloatSqrt              0      0.00%     79.47% # Type of FU issued
system.cpu.iq.FU_type_0::SimdReduceAdd              0      0.00%     79.47% # Type of FU issued
system.cpu.iq.FU_type_0::SimdReduceAlu              0      0.00%     79.47% # Type of FU issued
system.cpu.iq.FU_type_0::SimdReduceCmp              0      0.00%     79.47% # Type of FU issued
system.cpu.iq.FU_type_0::SimdFloatReduceAdd            0      0.00%     79.47% # Type of FU issued
system.cpu.iq.FU_type_0::SimdFloatReduceCmp            0      0.00%     79.47% # Type of FU issued
system.cpu.iq.FU_type_0::SimdAes                    0      0.00%     79.47% # Type of FU issued
system.cpu.iq.FU_type_0::SimdAesMix                 0      0.00%     79.47% # Type of FU issued
system.cpu.iq.FU_type_0::SimdSha1Hash               0      0.00%     79.47% # Type of FU issued
system.cpu.iq.FU_type_0::SimdSha1Hash2              0      0.00%     79.47% # Type of FU issued
system.cpu.iq.FU_type_0::SimdSha256Hash             0      0.00%     79.47% # Type of FU issued
system.cpu.iq.FU_type_0::SimdSha256Hash2            0      0.00%     79.47% # Type of FU issued
system.cpu.iq.FU_type_0::SimdShaSigma2              0      0.00%     79.47% # Type of FU issued
system.cpu.iq.FU_type_0::SimdShaSigma3              0      0.00%     79.47% # Type of FU issued
system.cpu.iq.FU_type_0::SimdPredAlu                0      0.00%     79.47% # Type of FU issued
system.cpu.iq.FU_type_0::MemRead              2902923     12.43%     91.90% # Type of FU issued
system.cpu.iq.FU_type_0::MemWrite             1576399      6.75%     98.65% # Type of FU issued
system.cpu.iq.FU_type_0::FloatMemRead          121834      0.52%     99.17% # Type of FU issued
system.cpu.iq.FU_type_0::FloatMemWrite         193268      0.83%    100.00% # Type of FU issued
system.cpu.iq.FU_type_0::IprAccess                  0      0.00%    100.00% # Type of FU issued
system.cpu.iq.FU_type_0::InstPrefetch               0      0.00%    100.00% # Type of FU issued
system.cpu.iq.FU_type_0::total               23355247                       # Type of FU issued
system.cpu.iq.fp_alu_accesses                  508860                       # Number of floating point alu accesses
system.cpu.iq.fp_inst_queue_reads              987201                       # Number of floating instruction queue reads
system.cpu.iq.fp_inst_queue_wakeup_accesses       460647                       # Number of floating instruction queue wakeup accesses
system.cpu.iq.fp_inst_queue_writes             735682                       # Number of floating instruction queue writes
system.cpu.iq.fu_busy_cnt                      314126                       # FU busy when requested
system.cpu.iq.fu_busy_rate                   0.013450                       # FU busy rate (busy events/executed inst)
system.cpu.iq.fu_full::No_OpClass                   0      0.00%      0.00% # attempts to use FU when none available
system.cpu.iq.fu_full::IntAlu                  246110     78.35%     78.35% # attempts to use FU when none available
system.cpu.iq.fu_full::IntMult                      0      0.00%     78.35% # attempts to use FU when none available
system.cpu.iq.fu_full::IntDiv                       0      0.00%     78.35% # attempts to use FU when none available
system.cpu.iq.fu_full::FloatAdd                     0      0.00%     78.35% # attempts to use FU when none available
system.cpu.iq.fu_full::FloatCmp                     0      0.00%     78.35% # attempts to use FU when none available
system.cpu.iq.fu_full::FloatCvt                     0      0.00%     78.35% # attempts to use FU when none available
system.cpu.iq.fu_full::FloatMult                    0      0.00%     78.35% # attempts to use FU when none available
system.cpu.iq.fu_full::FloatMultAcc                 0      0.00%     78.35% # attempts to use FU when none available
system.cpu.iq.fu_full::FloatDiv                     0      0.00%     78.35% # attempts to use FU when none available
system.cpu.iq.fu_full::FloatMisc                    0      0.00%     78.35% # attempts to use FU when none available
system.cpu.iq.fu_full::FloatSqrt                    0      0.00%     78.35% # attempts to use FU when none available
system.cpu.iq.fu_full::SimdAdd                      3      0.00%     78.35% # attempts to use FU when none available
system.cpu.iq.fu_full::SimdAddAcc                   0      0.00%     78.35% # attempts to use FU when none available
system.cpu.iq.fu_full::SimdAlu                    758      0.24%     78.59% # attempts to use FU when none available
system.cpu.iq.fu_full::SimdCmp                      0      0.00%     78.59% # attempts to use FU when none available
system.cpu.iq.fu_full::SimdCvt                    266      0.08%     78.67% # attempts to use FU when none available
system.cpu.iq.fu_full::SimdMisc                   151      0.05%     78.72% # attempts to use FU when none available
system.cpu.iq.fu_full::SimdMult                     0      0.00%     78.72% # attempts to use FU when none available
system.cpu.iq.fu_full::SimdMultAcc                  0      0.00%     78.72% # attempts to use FU when none available
system.cpu.iq.fu_full::SimdShift                   65      0.02%     78.74% # attempts to use FU when none available
system.cpu.iq.fu_full::SimdShiftAcc                 0      0.00%     78.74% # attempts to use FU when none available
system.cpu.iq.fu_full::SimdDiv                      0      0.00%     78.74% # attempts to use FU when none available
system.cpu.iq.fu_full::SimdSqrt                     0      0.00%     78.74% # attempts to use FU when none available
system.cpu.iq.fu_full::SimdFloatAdd                 0      0.00%     78.74% # attempts to use FU when none available
system.cpu.iq.fu_full::SimdFloatAlu                 0      0.00%     78.74% # attempts to use FU when none available
system.cpu.iq.fu_full::SimdFloatCmp                 0      0.00%     78.74% # attempts to use FU when none available
system.cpu.iq.fu_full::SimdFloatCvt                 0      0.00%     78.74% # attempts to use FU when none available
system.cpu.iq.fu_full::SimdFloatDiv                 0      0.00%     78.74% # attempts to use FU when none available
system.cpu.iq.fu_full::SimdFloatMisc                0      0.00%     78.74% # attempts to use FU when none available
system.cpu.iq.fu_full::SimdFloatMult                0      0.00%     78.74% # attempts to use FU when none available
system.cpu.iq.fu_full::SimdFloatMultAcc             0      0.00%     78.74% # attempts to use FU when none available
system.cpu.iq.fu_full::SimdFloatSqrt                0      0.00%     78.74% # attempts to use FU when none available
system.cpu.iq.fu_full::SimdReduceAdd                0      0.00%     78.74% # attempts to use FU when none available
system.cpu.iq.fu_full::SimdReduceAlu                0      0.00%     78.74% # attempts to use FU when none available
system.cpu.iq.fu_full::SimdReduceCmp                0      0.00%     78.74% # attempts to use FU when none available
system.cpu.iq.fu_full::SimdFloatReduceAdd            0      0.00%     78.74% # attempts to use FU when none available
system.cpu.iq.fu_full::SimdFloatReduceCmp            0      0.00%     78.74% # attempts to use FU when none available
system.cpu.iq.fu_full::SimdAes                      0      0.00%     78.74% # attempts to use FU when none available
system.cpu.iq.fu_full::SimdAesMix                   0      0.00%     78.74% # attempts to use FU when none available
system.cpu.iq.fu_full::SimdSha1Hash                 0      0.00%     78.74% # attempts to use FU when none available
system.cpu.iq.fu_full::SimdSha1Hash2                0      0.00%     78.74% # attempts to use FU when none available
system.cpu.iq.fu_full::SimdSha256Hash               0      0.00%     78.74% # attempts to use FU when none available
system.cpu.iq.fu_full::SimdSha256Hash2              0      0.00%     78.74% # attempts to use FU when none available
system.cpu.iq.fu_full::SimdShaSigma2                0      0.00%     78.74% # attempts to use FU when none available
system.cpu.iq.fu_full::SimdShaSigma3                0      0.00%     78.74% # attempts to use FU when none available
system.cpu.iq.fu_full::SimdPredAlu                  0      0.00%     78.74% # attempts to use FU when none available
system.cpu.iq.fu_full::MemRead                  16946      5.39%     84.14% # attempts to use FU when none available
system.cpu.iq.fu_full::MemWrite                 19218      6.12%     90.26% # attempts to use FU when none available
system.cpu.iq.fu_full::FloatMemRead             22850      7.27%     97.53% # attempts to use FU when none available
system.cpu.iq.fu_full::FloatMemWrite             7759      2.47%    100.00% # attempts to use FU when none available
system.cpu.iq.fu_full::IprAccess                    0      0.00%    100.00% # attempts to use FU when none available
system.cpu.iq.fu_full::InstPrefetch                 0      0.00%    100.00% # attempts to use FU when none available
system.cpu.iq.int_alu_accesses               22769188                       # Number of integer alu accesses
system.cpu.iq.int_inst_queue_reads           60558484                       # Number of integer instruction queue reads
system.cpu.iq.int_inst_queue_wakeup_accesses     22360923                       # Number of integer instruction queue wakeup accesses
system.cpu.iq.int_inst_queue_writes          30082099                       # Number of integer instruction queue writes
system.cpu.iq.iqInstsAdded                   24888756                       # Number of instructions added to the IQ (excludes non-spec)
system.cpu.iq.iqInstsIssued                  23355247                       # Number of instructions issued
system.cpu.iq.iqNonSpecInstsAdded                4796                       # Number of non-speculative instructions added to the IQ
system.cpu.iq.iqSquashedInstsExamined         5920438                       # Number of squashed instructions iterated over during squash; mainly for profiling
system.cpu.iq.iqSquashedInstsIssued             26249                       # Number of squashed instructions issued
system.cpu.iq.iqSquashedNonSpecRemoved           2802                       # Number of squashed non-spec instructions that were removed
system.cpu.iq.iqSquashedOperandsExamined      6521206                       # Number of squashed operands that are examined and possibly removed from graph
system.cpu.iq.issued_per_cycle::samples      14494816                       # Number of insts issued each cycle
system.cpu.iq.issued_per_cycle::mean         1.611283                       # Number of insts issued each cycle
system.cpu.iq.issued_per_cycle::stdev        2.218784                       # Number of insts issued each cycle
system.cpu.iq.issued_per_cycle::underflows            0      0.00%      0.00% # Number of insts issued each cycle
system.cpu.iq.issued_per_cycle::0             7934273     54.74%     54.74% # Number of insts issued each cycle
system.cpu.iq.issued_per_cycle::1             1222930      8.44%     63.18% # Number of insts issued each cycle
system.cpu.iq.issued_per_cycle::2             1153291      7.96%     71.13% # Number of insts issued each cycle
system.cpu.iq.issued_per_cycle::3             1119924      7.73%     78.86% # Number of insts issued each cycle
system.cpu.iq.issued_per_cycle::4              961865      6.64%     85.49% # Number of insts issued each cycle
system.cpu.iq.issued_per_cycle::5              788019      5.44%     90.93% # Number of insts issued each cycle
system.cpu.iq.issued_per_cycle::6              710417      4.90%     95.83% # Number of insts issued each cycle
system.cpu.iq.issued_per_cycle::7              416870      2.88%     98.71% # Number of insts issued each cycle
system.cpu.iq.issued_per_cycle::8              187227      1.29%    100.00% # Number of insts issued each cycle
system.cpu.iq.issued_per_cycle::overflows            0      0.00%    100.00% # Number of insts issued each cycle
system.cpu.iq.issued_per_cycle::min_value            0                       # Number of insts issued each cycle
system.cpu.iq.issued_per_cycle::max_value            8                       # Number of insts issued each cycle
system.cpu.iq.issued_per_cycle::total        14494816                       # Number of insts issued each cycle
system.cpu.iq.rate                           1.459147                       # Inst issue rate
system.cpu.iq.vec_alu_accesses                      0                       # Number of vector alu accesses
system.cpu.iq.vec_inst_queue_reads                  0                       # Number of vector instruction queue reads
system.cpu.iq.vec_inst_queue_wakeup_accesses            0                       # Number of vector instruction queue wakeup accesses
system.cpu.iq.vec_inst_queue_writes                 0                       # Number of vector instruction queue writes
system.cpu.memDep0.conflictingLoads            153943                       # Number of conflicting loads.
system.cpu.memDep0.conflictingStores           201565                       # Number of conflicting stores.
system.cpu.memDep0.insertedLoads              3198467                       # Number of loads inserted to the mem dependence unit.
system.cpu.memDep0.insertedStores             1913347                       # Number of stores inserted to the mem dependence unit.
system.cpu.misc_regfile_reads                10147919                       # number of misc regfile reads
system.cpu.misc_regfile_writes                     54                       # number of misc regfile writes
system.cpu.numCycles                         16006098                       # number of cpu cycles simulated
system.cpu.numWorkItemsCompleted                    0                       # number of work items this cpu completed
system.cpu.numWorkItemsStarted                      0                       # number of work items this cpu started
system.cpu.timesIdled                          126882                       # Number of times that the entire CPU went into an idle state and unscheduled itself
system.cpu.workload.numSyscalls                   155                       # Number of system calls
system.membus.snoop_filter.hit_multi_requests            0                       # Number of requests hitting in the snoop filter with multiple (>1) holders of the requested data.
system.membus.snoop_filter.hit_multi_snoops            0                       # Number of snoops hitting in the snoop filter with multiple (>1) holders of the requested data.
system.membus.snoop_filter.hit_single_requests        22874                       # Number of requests hitting in the snoop filter with a single holder of the requested data.
system.membus.snoop_filter.hit_single_snoops            0                       # Number of snoops hitting in the snoop filter with a single holder of the requested data.
system.membus.snoop_filter.tot_requests         53940                       # Total number of requests made to the snoop filter.
system.membus.snoop_filter.tot_snoops               0                       # Total number of snoops made to the snoop filter.
system.tol2bus.snoop_filter.hit_multi_requests          944                       # Number of requests hitting in the snoop filter with multiple (>1) holders of the requested data.
system.tol2bus.snoop_filter.hit_multi_snoops            0                       # Number of snoops hitting in the snoop filter with multiple (>1) holders of the requested data.
system.tol2bus.snoop_filter.hit_single_requests       384239                       # Number of requests hitting in the snoop filter with a single holder of the requested data.
system.tol2bus.snoop_filter.hit_single_snoops          148                       # Number of snoops hitting in the snoop filter with a single holder of the requested data.
system.tol2bus.snoop_filter.tot_requests       769817                       # Total number of requests made to the snoop filter.
system.tol2bus.snoop_filter.tot_snoops            148                       # Total number of snoops made to the snoop filter.
system.clk_domain.clock                           250                       # Clock period in ticks
system.cpu.branchPred.lookups                 3060754                       # Number of BP lookups
system.cpu.branchPred.condPredicted           2303962                       # Number of conditional branches predicted
system.cpu.branchPred.condIncorrect            217160                       # Number of conditional branches incorrect
system.cpu.branchPred.BTBLookups              1313580                       # Number of BTB lookups
system.cpu.branchPred.BTBHits                 1140972                       # Number of BTB hits
system.cpu.branchPred.BTBHitPct             86.859727                       # BTB Hit Percentage
system.cpu.branchPred.RASUsed                  174429                       # Number of times the RAS was used to get a target.
system.cpu.branchPred.RASIncorrect                338                       # Number of incorrect RAS predictions.
system.cpu.branchPred.indirectLookups          182635                       # Number of indirect predictor lookups.
system.cpu.branchPred.indirectHits              56360                       # Number of indirect target hits.
system.cpu.branchPred.indirectMisses           126275                       # Number of indirect misses.
system.cpu.branchPred.indirectMispredicted        30413                       # Number of mispredicted indirect branches.
system.cpu.commit.commitSquashedInsts         5830437                       # The number of squashed insts skipped by commit
system.cpu.commit.commitNonSpecStalls            1994                       # The number of times commit has been forced to stall to communicate backwards
system.cpu.commit.branchMispredicts            179162                       # The number of times a branch was mispredicted
system.cpu.commit.numCommittedDist::samples     13630821                       # Number of insts commited each cycle
system.cpu.commit.numCommittedDist::mean     1.391927                       # Number of insts commited each cycle
system.cpu.commit.numCommittedDist::stdev     2.360974                       # Number of insts commited each cycle
system.cpu.commit.numCommittedDist::underflows            0      0.00%      0.00% # Number of insts commited each cycle
system.cpu.commit.numCommittedDist::0         8361829     61.35%     61.35% # Number of insts commited each cycle
system.cpu.commit.numCommittedDist::1         1460102     10.71%     72.06% # Number of insts commited each cycle
system.cpu.commit.numCommittedDist::2          751978      5.52%     77.57% # Number of insts commited each cycle
system.cpu.commit.numCommittedDist::3         1095510      8.04%     85.61% # Number of insts commited each cycle
system.cpu.commit.numCommittedDist::4          437623      3.21%     88.82% # Number of insts commited each cycle
system.cpu.commit.numCommittedDist::5          245340      1.80%     90.62% # Number of insts commited each cycle
system.cpu.commit.numCommittedDist::6          169806      1.25%     91.87% # Number of insts commited each cycle
system.cpu.commit.numCommittedDist::7          142566      1.05%     92.91% # Number of insts commited each cycle
system.cpu.commit.numCommittedDist::8          966067      7.09%    100.00% # Number of insts commited each cycle
system.cpu.commit.numCommittedDist::overflows            0      0.00%    100.00% # Number of insts commited each cycle
system.cpu.commit.numCommittedDist::min_value            0                       # Number of insts commited each cycle
system.cpu.commit.numCommittedDist::max_value            8                       # Number of insts commited each cycle
system.cpu.commit.numCommittedDist::total     13630821                       # Number of insts commited each cycle
system.cpu.commit.instsCommitted             10000000                       # Number of instructions committed
system.cpu.commit.opsCommitted               18973114                       # Number of ops (including micro ops) committed
system.cpu.commit.memRefs                     3761635                       # Number of memory references committed
system.cpu.commit.loads                       2352569                       # Number of loads committed
system.cpu.commit.amos                              0                       # Number of atomic instructions committed
system.cpu.commit.membars                        1248                       # Number of memory barriers committed
system.cpu.commit.branches                    2110701                       # Number of branches committed
system.cpu.commit.vector                            0                       # Number of committed Vector instructions.
system.cpu.commit.floating                     286904                       # Number of committed floating point instructions.
system.cpu.commit.integer                    18664119                       # Number of committed integer instructions.
system.cpu.commit.functionCalls                126115                       # Number of function calls committed.
system.cpu.commit.committedInstType_0::No_OpClass       187266      0.99%      0.99% # Class of committed instruction
system.cpu.commit.committedInstType_0::IntAlu     14879156     78.42%     79.41% # Class of committed instruction
system.cpu.commit.committedInstType_0::IntMult        13634      0.07%     79.48% # Class of committed instruction
system.cpu.commit.committedInstType_0::IntDiv         5943      0.03%     79.51% # Class of committed instruction
system.cpu.commit.committedInstType_0::FloatAdd        13813      0.07%     79.59% # Class of committed instruction
system.cpu.commit.committedInstType_0::FloatCmp            0      0.00%     79.59% # Class of committed instruction
system.cpu.commit.committedInstType_0::FloatCvt           96      0.00%     79.59% # Class of committed instruction
system.cpu.commit.committedInstType_0::FloatMult            0      0.00%     79.59% # Class of committed instruction
system.cpu.commit.committedInstType_0::FloatMultAcc            0      0.00%     79.59% # Class of committed instruction
system.cpu.commit.committedInstType_0::FloatDiv            0      0.00%     79.59% # Class of committed instruction
system.cpu.commit.committedInstType_0::FloatMisc            0      0.00%     79.59% # Class of committed instruction
system.cpu.commit.committedInstType_0::FloatSqrt            0      0.00%     79.59% # Class of committed instruction
system.cpu.commit.committedInstType_0::SimdAdd         2738      0.01%     79.60% # Class of committed instruction
system.cpu.commit.committedInstType_0::SimdAddAcc            0      0.00%     79.60% # Class of committed instruction
system.cpu.commit.committedInstType_0::SimdAlu        29670      0.16%     79.76% # Class of committed instruction
system.cpu.commit.committedInstType_0::SimdCmp           24      0.00%     79.76% # Class of committed instruction
system.cpu.commit.committedInstType_0::SimdCvt        19868      0.10%     79.86% # Class of committed instruction
system.cpu.commit.committedInstType_0::SimdMisc        57798      0.30%     80.17% # Class of committed instruction
system.cpu.commit.committedInstType_0::SimdMult            0      0.00%     80.17% # Class of committed instruction
system.cpu.commit.committedInstType_0::SimdMultAcc            0      0.00%     80.17% # Class of committed instruction
system.cpu.commit.committedInstType_0::SimdShift         1415      0.01%     80.17% # Class of committed instruction
system.cpu.commit.committedInstType_0::SimdShiftAcc            0      0.00%     80.17% # Class of committed instruction
system.cpu.commit.committedInstType_0::SimdDiv            0      0.00%     80.17% # Class of committed instruction
system.cpu.commit.committedInstType_0::SimdSqrt            0      0.00%     80.17% # Class of committed instruction
system.cpu.commit.committedInstType_0::SimdFloatAdd            6      0.00%     80.17% # Class of committed instruction
system.cpu.commit.committedInstType_0::SimdFloatAlu            0      0.00%     80.17% # Class of committed instruction
system.cpu.commit.committedInstType_0::SimdFloatCmp            0      0.00%     80.17% # Class of committed instruction
system.cpu.commit.committedInstType_0::SimdFloatCvt           44      0.00%     80.17% # Class of committed instruction
system.cpu.commit.committedInstType_0::SimdFloatDiv            2      0.00%     80.17% # Class of committed instruction
system.cpu.commit.committedInstType_0::SimdFloatMisc            0      0.00%     80.17% # Class of committed instruction
system.cpu.commit.committedInstType_0::SimdFloatMult            6      0.00%     80.17% # Class of committed instruction
system.cpu.commit.committedInstType_0::SimdFloatMultAcc            0      0.00%     80.17% # Class of committed instruction
system.cpu.commit.committedInstType_0::SimdFloatSqrt            0      0.00%     80.17% # Class of committed instruction
system.cpu.commit.committedInstType_0::SimdReduceAdd            0      0.00%     80.17% # Class of committed instruction
system.cpu.commit.committedInstType_0::SimdReduceAlu            0      0.00%     80.17% # Class of committed instruction
system.cpu.commit.committedInstType_0::SimdReduceCmp            0      0.00%     80.17% # Class of committed instruction
system.cpu.commit.committedInstType_0::SimdFloatReduceAdd            0      0.00%     80.17% # Class of committed instruction
system.cpu.commit.committedInstType_0::SimdFloatReduceCmp            0      0.00%     80.17% # Class of committed instruction
system.cpu.commit.committedInstType_0::SimdAes            0      0.00%     80.17% # Class of committed instruction
system.cpu.commit.committedInstType_0::SimdAesMix            0      0.00%     80.17% # Class of committed instruction
system.cpu.commit.committedInstType_0::SimdSha1Hash            0      0.00%     80.17% # Class of committed instruction
system.cpu.commit.committedInstType_0::SimdSha1Hash2            0      0.00%     80.17% # Class of committed instruction
system.cpu.commit.committedInstType_0::SimdSha256Hash            0      0.00%     80.17% # Class of committed instruction
system.cpu.commit.committedInstType_0::SimdSha256Hash2            0      0.00%     80.17% # Class of committed instruction
system.cpu.commit.committedInstType_0::SimdShaSigma2            0      0.00%     80.17% # Class of committed instruction
system.cpu.commit.committedInstType_0::SimdShaSigma3            0      0.00%     80.17% # Class of committed instruction
system.cpu.commit.committedInstType_0::SimdPredAlu            0      0.00%     80.17% # Class of committed instruction
system.cpu.commit.committedInstType_0::MemRead      2315698     12.21%     92.38% # Class of committed instruction
system.cpu.commit.committedInstType_0::MemWrite      1302185      6.86%     99.24% # Class of committed instruction
system.cpu.commit.committedInstType_0::FloatMemRead        36871      0.19%     99.44% # Class of committed instruction
system.cpu.commit.committedInstType_0::FloatMemWrite       106881      0.56%    100.00% # Class of committed instruction
system.cpu.commit.committedInstType_0::IprAccess            0      0.00%    100.00% # Class of committed instruction
system.cpu.commit.committedInstType_0::InstPrefetch            0      0.00%    100.00% # Class of committed instruction
system.cpu.commit.committedInstType_0::total     18973114                       # Class of committed instruction
system.cpu.commit.commitEligibleSamples        966067                       # number cycles where commit BW limit reached
system.cpu.dcache.demand_hits::.cpu.data      3972403                       # number of demand (read+write) hits
system.cpu.dcache.demand_hits::total          3972403                       # number of demand (read+write) hits
system.cpu.dcache.overall_hits::.cpu.data      3990981                       # number of overall hits
system.cpu.dcache.overall_hits::total         3990981                       # number of overall hits
system.cpu.dcache.demand_misses::.cpu.data       143610                       # number of demand (read+write) misses
system.cpu.dcache.demand_misses::total         143610                       # number of demand (read+write) misses
system.cpu.dcache.overall_misses::.cpu.data       144665                       # number of overall misses
system.cpu.dcache.overall_misses::total        144665                       # number of overall misses
system.cpu.dcache.demand_miss_latency::.cpu.data   3762229997                       # number of demand (read+write) miss cycles
system.cpu.dcache.demand_miss_latency::total   3762229997                       # number of demand (read+write) miss cycles
system.cpu.dcache.overall_miss_latency::.cpu.data   3762229997                       # number of overall miss cycles
system.cpu.dcache.overall_miss_latency::total   3762229997                       # number of overall miss cycles
system.cpu.dcache.demand_accesses::.cpu.data      4116013                       # number of demand (read+write) accesses
system.cpu.dcache.demand_accesses::total      4116013                       # number of demand (read+write) accesses
system.cpu.dcache.overall_accesses::.cpu.data      4135646                       # number of overall (read+write) accesses
system.cpu.dcache.overall_accesses::total      4135646                       # number of overall (read+write) accesses
system.cpu.dcache.demand_miss_rate::.cpu.data     0.034891                       # miss rate for demand accesses
system.cpu.dcache.demand_miss_rate::total     0.034891                       # miss rate for demand accesses
system.cpu.dcache.overall_miss_rate::.cpu.data     0.034980                       # miss rate for overall accesses
system.cpu.dcache.overall_miss_rate::total     0.034980                       # miss rate for overall accesses
system.cpu.dcache.demand_avg_miss_latency::.cpu.data 26197.548896                       # average overall miss latency
system.cpu.dcache.demand_avg_miss_latency::total 26197.548896                       # average overall miss latency
system.cpu.dcache.overall_avg_miss_latency::.cpu.data 26006.497750                       # average overall miss latency
system.cpu.dcache.overall_avg_miss_latency::total 26006.497750                       # average overall miss latency
system.cpu.dcache.blocked_cycles::no_mshrs        48685                       # number of cycles access was blocked
system.cpu.dcache.blocked_cycles::no_targets          105                       # number of cycles access was blocked
system.cpu.dcache.blocked::no_mshrs              1209                       # number of cycles access was blocked
system.cpu.dcache.blocked::no_targets               5                       # number of cycles access was blocked
system.cpu.dcache.avg_blocked_cycles::no_mshrs    40.268817                       # average number of cycles each access was blocked
system.cpu.dcache.avg_blocked_cycles::no_targets           21                       # average number of cycles each access was blocked
system.cpu.dcache.writebacks::.writebacks        64606                       # number of writebacks
system.cpu.dcache.writebacks::total             64606                       # number of writebacks
system.cpu.dcache.demand_mshr_hits::.cpu.data        54328                       # number of demand (read+write) MSHR hits
system.cpu.dcache.demand_mshr_hits::total        54328                       # number of demand (read+write) MSHR hits
system.cpu.dcache.overall_mshr_hits::.cpu.data        54328                       # number of overall MSHR hits
system.cpu.dcache.overall_mshr_hits::total        54328                       # number of overall MSHR hits
system.cpu.dcache.demand_mshr_misses::.cpu.data        89282                       # number of demand (read+write) MSHR misses
system.cpu.dcache.demand_mshr_misses::total        89282                       # number of demand (read+write) MSHR misses
system.cpu.dcache.overall_mshr_misses::.cpu.data        89895                       # number of overall MSHR misses
system.cpu.dcache.overall_mshr_misses::total        89895                       # number of overall MSHR misses
system.cpu.dcache.demand_mshr_miss_latency::.cpu.data   2182798497                       # number of demand (read+write) MSHR miss cycles
system.cpu.dcache.demand_mshr_miss_latency::total   2182798497                       # number of demand (read+write) MSHR miss cycles
system.cpu.dcache.overall_mshr_miss_latency::.cpu.data   2208150997                       # number of overall MSHR miss cycles
system.cpu.dcache.overall_mshr_miss_latency::total   2208150997                       # number of overall MSHR miss cycles
system.cpu.dcache.demand_mshr_miss_rate::.cpu.data     0.021691                       # mshr miss rate for demand accesses
system.cpu.dcache.demand_mshr_miss_rate::total     0.021691                       # mshr miss rate for demand accesses
system.cpu.dcache.overall_mshr_miss_rate::.cpu.data     0.021737                       # mshr miss rate for overall accesses
system.cpu.dcache.overall_mshr_miss_rate::total     0.021737                       # mshr miss rate for overall accesses
system.cpu.dcache.demand_avg_mshr_miss_latency::.cpu.data 24448.360218                       # average overall mshr miss latency
system.cpu.dcache.demand_avg_mshr_miss_latency::total 24448.360218                       # average overall mshr miss latency
system.cpu.dcache.overall_avg_mshr_miss_latency::.cpu.data 24563.668691                       # average overall mshr miss latency
system.cpu.dcache.overall_avg_mshr_miss_latency::total 24563.668691                       # average overall mshr miss latency
system.cpu.dcache.replacements                  89209                       # number of replacements
system.cpu.dcache.ReadReq_hits::.cpu.data      2585805                       # number of ReadReq hits
system.cpu.dcache.ReadReq_hits::total         2585805                       # number of ReadReq hits
system.cpu.dcache.ReadReq_misses::.cpu.data       121037                       # number of ReadReq misses
system.cpu.dcache.ReadReq_misses::total        121037                       # number of ReadReq misses
system.cpu.dcache.ReadReq_miss_latency::.cpu.data   2804631500                       # number of ReadReq miss cycles
system.cpu.dcache.ReadReq_miss_latency::total   2804631500                       # number of ReadReq miss cycles
system.cpu.dcache.ReadReq_accesses::.cpu.data      2706842                       # number of ReadReq accesses(hits+misses)
system.cpu.dcache.ReadReq_accesses::total      2706842                       # number of ReadReq accesses(hits+misses)
system.cpu.dcache.ReadReq_miss_rate::.cpu.data     0.044715                       # miss rate for ReadReq accesses
system.cpu.dcache.ReadReq_miss_rate::total     0.044715                       # miss rate for ReadReq accesses
system.cpu.dcache.ReadReq_avg_miss_latency::.cpu.data 23171.687170                       # average ReadReq miss latency
system.cpu.dcache.ReadReq_avg_miss_latency::total 23171.687170                       # average ReadReq miss latency
system.cpu.dcache.ReadReq_mshr_hits::.cpu.data        53473                       # number of ReadReq MSHR hits
system.cpu.dcache.ReadReq_mshr_hits::total        53473                       # number of ReadReq MSHR hits
system.cpu.dcache.ReadReq_mshr_misses::.cpu.data        67564                       # number of ReadReq MSHR misses
system.cpu.dcache.ReadReq_mshr_misses::total        67564                       # number of ReadReq MSHR misses
system.cpu.dcache.ReadReq_mshr_miss_latency::.cpu.data   1259949500                       # number of ReadReq MSHR miss cycles
system.cpu.dcache.ReadReq_mshr_miss_latency::total   1259949500                       # number of ReadReq MSHR miss cycles
system.cpu.dcache.ReadReq_mshr_miss_rate::.cpu.data     0.024960                       # mshr miss rate for ReadReq accesses
system.cpu.dcache.ReadReq_mshr_miss_rate::total     0.024960                       # mshr miss rate for ReadReq accesses
system.cpu.dcache.ReadReq_avg_mshr_miss_latency::.cpu.data 18648.237227                       # average ReadReq mshr miss latency
system.cpu.dcache.ReadReq_avg_mshr_miss_latency::total 18648.237227                       # average ReadReq mshr miss latency
system.cpu.dcache.WriteReq_hits::.cpu.data      1386598                       # number of WriteReq hits
system.cpu.dcache.WriteReq_hits::total        1386598                       # number of WriteReq hits
system.cpu.dcache.WriteReq_misses::.cpu.data        22573                       # number of WriteReq misses
system.cpu.dcache.WriteReq_misses::total        22573                       # number of WriteReq misses
system.cpu.dcache.WriteReq_miss_latency::.cpu.data    957598497                       # number of WriteReq miss cycles
system.cpu.dcache.WriteReq_miss_latency::total    957598497                       # number of WriteReq miss cycles
system.cpu.dcache.WriteReq_accesses::.cpu.data      1409171                       # number of WriteReq accesses(hits+misses)
system.cpu.dcache.WriteReq_accesses::total      1409171                       # number of WriteReq accesses(hits+misses)
system.cpu.dcache.WriteReq_miss_rate::.cpu.data     0.016019                       # miss rate for WriteReq accesses
system.cpu.dcache.WriteReq_miss_rate::total     0.016019                       # miss rate for WriteReq accesses
system.cpu.dcache.WriteReq_avg_miss_latency::.cpu.data 42422.296416                       # average WriteReq miss latency
system.cpu.dcache.WriteReq_avg_miss_latency::total 42422.296416                       # average WriteReq miss latency
system.cpu.dcache.WriteReq_mshr_hits::.cpu.data          855                       # number of WriteReq MSHR hits
system.cpu.dcache.WriteReq_mshr_hits::total          855                       # number of WriteReq MSHR hits
system.cpu.dcache.WriteReq_mshr_misses::.cpu.data        21718                       # number of WriteReq MSHR misses
system.cpu.dcache.WriteReq_mshr_misses::total        21718                       # number of WriteReq MSHR misses
system.cpu.dcache.WriteReq_mshr_miss_latency::.cpu.data    922848997                       # number of WriteReq MSHR miss cycles
system.cpu.dcache.WriteReq_mshr_miss_latency::total    922848997                       # number of WriteReq MSHR miss cycles
system.cpu.dcache.WriteReq_mshr_miss_rate::.cpu.data     0.015412                       # mshr miss rate for WriteReq accesses
system.cpu.dcache.WriteReq_mshr_miss_rate::total     0.015412                       # mshr miss rate for WriteReq accesses
system.cpu.dcache.WriteReq_avg_mshr_miss_latency::.cpu.data 42492.356432                       # average WriteReq mshr miss latency
system.cpu.dcache.WriteReq_avg_mshr_miss_latency::total 42492.356432                       # average WriteReq mshr miss latency
system.cpu.dcache.SoftPFReq_hits::.cpu.data        18578                       # number of SoftPFReq hits
system.cpu.dcache.SoftPFReq_hits::total         18578                       # number of SoftPFReq hits
system.cpu.dcache.SoftPFReq_misses::.cpu.data         1055                       # number of SoftPFReq misses
system.cpu.dcache.SoftPFReq_misses::total         1055                       # number of SoftPFReq misses
system.cpu.dcache.SoftPFReq_accesses::.cpu.data        19633                       # number of SoftPFReq accesses(hits+misses)
system.cpu.dcache.SoftPFReq_accesses::total        19633                       # number of SoftPFReq accesses(hits+misses)
system.cpu.dcache.SoftPFReq_miss_rate::.cpu.data     0.053736                       # miss rate for SoftPFReq accesses
system.cpu.dcache.SoftPFReq_miss_rate::total     0.053736                       # miss rate for SoftPFReq accesses
system.cpu.dcache.SoftPFReq_mshr_misses::.cpu.data          613                       # number of SoftPFReq MSHR misses
system.cpu.dcache.SoftPFReq_mshr_misses::total          613                       # number of SoftPFReq MSHR misses
system.cpu.dcache.SoftPFReq_mshr_miss_latency::.cpu.data     25352500                       # number of SoftPFReq MSHR miss cycles
system.cpu.dcache.SoftPFReq_mshr_miss_latency::total     25352500                       # number of SoftPFReq MSHR miss cycles
system.cpu.dcache.SoftPFReq_mshr_miss_rate::.cpu.data     0.031223                       # mshr miss rate for SoftPFReq accesses
system.cpu.dcache.SoftPFReq_mshr_miss_rate::total     0.031223                       # mshr miss rate for SoftPFReq accesses
system.cpu.dcache.SoftPFReq_avg_mshr_miss_latency::.cpu.data 41358.075041                       # average SoftPFReq mshr miss latency
system.cpu.dcache.SoftPFReq_avg_mshr_miss_latency::total 41358.075041                       # average SoftPFReq mshr miss latency
system.cpu.dcache.power_state.pwrStateResidencyTicks::UNDEFINED   8003048500                       # Cumulative time (in ticks) in various power states
system.cpu.dcache.tags.tagsinuse           509.928454                       # Cycle average of tags in use
system.cpu.dcache.tags.total_refs             4081041                       # Total number of references to valid blocks.
system.cpu.dcache.tags.sampled_refs             89721                       # Sample count of references to valid blocks.
system.cpu.dcache.tags.avg_refs             45.485906                       # Average number of references to valid blocks.
system.cpu.dcache.tags.warmup_cycle            163000                       # Cycle when the warmup percentage was hit.
system.cpu.dcache.tags.occ_blocks::.cpu.data   509.928454                       # Average occupied blocks per requestor
system.cpu.dcache.tags.occ_percent::.cpu.data     0.995954                       # Average percentage of cache occupancy
system.cpu.dcache.tags.occ_percent::total     0.995954                       # Average percentage of cache occupancy
system.cpu.dcache.tags.occ_task_id_blocks::1024          512                       # Occupied blocks per task id
system.cpu.dcache.tags.age_task_id_blocks_1024::0           52                       # Occupied blocks per task id
system.cpu.dcache.tags.age_task_id_blocks_1024::1          345                       # Occupied blocks per task id
system.cpu.dcache.tags.age_task_id_blocks_1024::2          115                       # Occupied blocks per task id
system.cpu.dcache.tags.occ_task_id_percent::1024            1                       # Percentage of cache occupancy per task id
system.cpu.dcache.tags.tag_accesses           8361013                       # Number of tag accesses
system.cpu.dcache.tags.data_accesses          8361013                       # Number of data accesses
system.cpu.dcache.tags.power_state.pwrStateResidencyTicks::UNDEFINED   8003048500                       # Cumulative time (in ticks) in various power states
system.cpu.decode.idleCycles                  7484899                       # Number of cycles decode is idle
system.cpu.decode.blockedCycles               2667668                       # Number of cycles decode is blocked
system.cpu.decode.runCycles                   3948064                       # Number of cycles decode is running
system.cpu.decode.unblockCycles                207523                       # Number of cycles decode is unblocking
system.cpu.decode.squashCycles                 186662                       # Number of cycles decode is squashing
system.cpu.decode.branchResolved              1137184                       # Number of times decode resolved a  branch
system.cpu.decode.branchMispred                 40195                       # Number of times decode detected a branch misprediction
system.cpu.decode.decodedInsts               26390023                       # Number of instructions handled by decode
system.cpu.decode.squashedInsts                175285                       # Number of squashed instructions handled by decode
system.cpu.dtb.rdAccesses                     2956140                       # TLB accesses on read requests
system.cpu.dtb.wrAccesses                     1735656                       # TLB accesses on write requests
system.cpu.dtb.rdMisses                         13249                       # TLB misses on read requests
system.cpu.dtb.wrMisses                          1881                       # TLB misses on write requests
system.cpu.dtb.walker.power_state.pwrStateResidencyTicks::UNDEFINED   8003048500                       # Cumulative time (in ticks) in various power states
system.cpu.dtb_walker_cache.blocked_cycles::no_mshrs            0                       # number of cycles access was blocked
system.cpu.dtb_walker_cache.blocked_cycles::no_targets            0                       # number of cycles access was blocked
system.cpu.dtb_walker_cache.blocked::no_mshrs            0                       # number of cycles access was blocked
system.cpu.dtb_walker_cache.blocked::no_targets            0                       # number of cycles access was blocked
system.cpu.dtb_walker_cache.avg_blocked_cycles::no_mshrs          nan                       # average number of cycles each access was blocked
system.cpu.dtb_walker_cache.avg_blocked_cycles::no_targets          nan                       # average number of cycles each access was blocked
system.cpu.dtb_walker_cache.replacements            0                       # number of replacements
system.cpu.dtb_walker_cache.power_state.pwrStateResidencyTicks::UNDEFINED   8003048500                       # Cumulative time (in ticks) in various power states
system.cpu.dtb_walker_cache.tags.tagsinuse            0                       # Cycle average of tags in use
system.cpu.dtb_walker_cache.tags.total_refs            0                       # Total number of references to valid blocks.
system.cpu.dtb_walker_cache.tags.sampled_refs            0                       # Sample count of references to valid blocks.
system.cpu.dtb_walker_cache.tags.avg_refs          nan                       # Average number of references to valid blocks.
system.cpu.dtb_walker_cache.tags.warmup_cycle            0                       # Cycle when the warmup percentage was hit.
system.cpu.dtb_walker_cache.tags.tag_accesses            0                       # Number of tag accesses
system.cpu.dtb_walker_cache.tags.data_accesses            0                       # Number of data accesses
system.cpu.dtb_walker_cache.tags.power_state.pwrStateResidencyTicks::UNDEFINED   8003048500                       # Cumulative time (in ticks) in various power states
system.cpu.fetch.icacheStallCycles            7871960                       # Number of cycles fetch is stalled on an Icache miss
system.cpu.fetch.insts                       14464887                       # Number of instructions fetch has processed
system.cpu.fetch.branches                     3060754                       # Number of branches that fetch encountered
system.cpu.fetch.predictedBranches            1371761                       # Number of branches that fetch has predicted taken
system.cpu.fetch.cycles                       6380262                       # Number of cycles fetch has run and was not squashing or blocked
system.cpu.fetch.squashCycles                  452504                       # Number of cycles fetch has spent squashing
system.cpu.fetch.miscStallCycles                 1882                       # Number of cycles fetch has spent waiting on interrupts,or bad addresses, or out of MSHRs
system.cpu.fetch.pendingTrapStallCycles         14247                       # Number of stall cycles due to pending traps
system.cpu.fetch.pendingQuiesceStallCycles            9                       # Number of stall cycles due to pending quiesce instructions
system.cpu.fetch.icacheWaitRetryStallCycles          204                       # Number of stall cycles due to full MSHR
system.cpu.fetch.cacheLines                   2294292                       # Number of cache lines fetched
system.cpu.fetch.icacheSquashes                121000                       # Number of outstanding Icache misses that were squashed
system.cpu.fetch.nisnDist::samples           14494816                       # Number of instructions fetched each cycle (Total)
system.cpu.fetch.nisnDist::mean              1.900010                       # Number of instructions fetched each cycle (Total)
system.cpu.fetch.nisnDist::stdev             3.130332                       # Number of instructions fetched each cycle (Total)
system.cpu.fetch.nisnDist::underflows               0      0.00%      0.00% # Number of instructions fetched each cycle (Total)
system.cpu.fetch.nisnDist::0                 10039292     69.26%     69.26% # Number of instructions fetched each cycle (Total)
system.cpu.fetch.nisnDist::1                   224687      1.55%     70.81% # Number of instructions fetched each cycle (Total)
system.cpu.fetch.nisnDist::2                   273205      1.88%     72.70% # Number of instructions fetched each cycle (Total)
system.cpu.fetch.nisnDist::3                   288622      1.99%     74.69% # Number of instructions fetched each cycle (Total)
system.cpu.fetch.nisnDist::4                   393010      2.71%     77.40% # Number of instructions fetched each cycle (Total)
system.cpu.fetch.nisnDist::5                   349722      2.41%     79.81% # Number of instructions fetched each cycle (Total)
system.cpu.fetch.nisnDist::6                   273110      1.88%     81.70% # Number of instructions fetched each cycle (Total)
system.cpu.fetch.nisnDist::7                   281318      1.94%     83.64% # Number of instructions fetched each cycle (Total)
system.cpu.fetch.nisnDist::8                  2371850     16.36%    100.00% # Number of instructions fetched each cycle (Total)
system.cpu.fetch.nisnDist::overflows                0      0.00%    100.00% # Number of instructions fetched each cycle (Total)
system.cpu.fetch.nisnDist::min_value                0                       # Number of instructions fetched each cycle (Total)
system.cpu.fetch.nisnDist::max_value                8                       # Number of instructions fetched each cycle (Total)
system.cpu.fetch.nisnDist::total             14494816                       # Number of instructions fetched each cycle (Total)
system.cpu.fetch.branchRate                  0.191224                       # Number of branch fetches per cycle
system.cpu.fetch.rate                        0.903711                       # Number of inst fetches per cycle
system.cpu.icache.demand_hits::.cpu.inst      1978255                       # number of demand (read+write) hits
system.cpu.icache.demand_hits::total          1978255                       # number of demand (read+write) hits
system.cpu.icache.overall_hits::.cpu.inst      1978255                       # number of overall hits
system.cpu.icache.overall_hits::total         1978255                       # number of overall hits
system.cpu.icache.demand_misses::.cpu.inst       316036                       # number of demand (read+write) misses
system.cpu.icache.demand_misses::total         316036                       # number of demand (read+write) misses
system.cpu.icache.overall_misses::.cpu.inst       316036                       # number of overall misses
system.cpu.icache.overall_misses::total        316036                       # number of overall misses
system.cpu.icache.demand_miss_latency::.cpu.inst   4936148495                       # number of demand (read+write) miss cycles
system.cpu.icache.demand_miss_latency::total   4936148495                       # number of demand (read+write) miss cycles
system.cpu.icache.overall_miss_latency::.cpu.inst   4936148495                       # number of overall miss cycles
system.cpu.icache.overall_miss_latency::total   4936148495                       # number of overall miss cycles
system.cpu.icache.demand_accesses::.cpu.inst      2294291                       # number of demand (read+write) accesses
system.cpu.icache.demand_accesses::total      2294291                       # number of demand (read+write) accesses
system.cpu.icache.overall_accesses::.cpu.inst      2294291                       # number of overall (read+write) accesses
system.cpu.icache.overall_accesses::total      2294291                       # number of overall (read+write) accesses
system.cpu.icache.demand_miss_rate::.cpu.inst     0.137749                       # miss rate for demand accesses
system.cpu.icache.demand_miss_rate::total     0.137749                       # miss rate for demand accesses
system.cpu.icache.overall_miss_rate::.cpu.inst     0.137749                       # miss rate for overall accesses
system.cpu.icache.overall_miss_rate::total     0.137749                       # miss rate for overall accesses
system.cpu.icache.demand_avg_miss_latency::.cpu.inst 15618.943712                       # average overall miss latency
system.cpu.icache.demand_avg_miss_latency::total 15618.943712                       # average overall miss latency
system.cpu.icache.overall_avg_miss_latency::.cpu.inst 15618.943712                       # average overall miss latency
system.cpu.icache.overall_avg_miss_latency::total 15618.943712                       # average overall miss latency
system.cpu.icache.blocked_cycles::no_mshrs         4278                       # number of cycles access was blocked
system.cpu.icache.blocked_cycles::no_targets            0                       # number of cycles access was blocked
system.cpu.icache.blocked::no_mshrs               133                       # number of cycles access was blocked
system.cpu.icache.blocked::no_targets               0                       # number of cycles access was blocked
system.cpu.icache.avg_blocked_cycles::no_mshrs    32.165414                       # average number of cycles each access was blocked
system.cpu.icache.avg_blocked_cycles::no_targets          nan                       # average number of cycles each access was blocked
system.cpu.icache.writebacks::.writebacks       295017                       # number of writebacks
system.cpu.icache.writebacks::total            295017                       # number of writebacks
system.cpu.icache.demand_mshr_hits::.cpu.inst        20340                       # number of demand (read+write) MSHR hits
system.cpu.icache.demand_mshr_hits::total        20340                       # number of demand (read+write) MSHR hits
system.cpu.icache.overall_mshr_hits::.cpu.inst        20340                       # number of overall MSHR hits
system.cpu.icache.overall_mshr_hits::total        20340                       # number of overall MSHR hits
system.cpu.icache.demand_mshr_misses::.cpu.inst       295696                       # number of demand (read+write) MSHR misses
system.cpu.icache.demand_mshr_misses::total       295696                       # number of demand (read+write) MSHR misses
system.cpu.icache.overall_mshr_misses::.cpu.inst       295696                       # number of overall MSHR misses
system.cpu.icache.overall_mshr_misses::total       295696                       # number of overall MSHR misses
system.cpu.icache.demand_mshr_miss_latency::.cpu.inst   4367157498                       # number of demand (read+write) MSHR miss cycles
system.cpu.icache.demand_mshr_miss_latency::total   4367157498                       # number of demand (read+write) MSHR miss cycles
system.cpu.icache.overall_mshr_miss_latency::.cpu.inst   4367157498                       # number of overall MSHR miss cycles
system.cpu.icache.overall_mshr_miss_latency::total   4367157498                       # number of overall MSHR miss cycles
system.cpu.icache.demand_mshr_miss_rate::.cpu.inst     0.128883                       # mshr miss rate for demand accesses
system.cpu.icache.demand_mshr_miss_rate::total     0.128883                       # mshr miss rate for demand accesses
system.cpu.icache.overall_mshr_miss_rate::.cpu.inst     0.128883                       # mshr miss rate for overall accesses
system.cpu.icache.overall_mshr_miss_rate::total     0.128883                       # mshr miss rate for overall accesses
system.cpu.icache.demand_avg_mshr_miss_latency::.cpu.inst 14769.078709                       # average overall mshr miss latency
system.cpu.icache.demand_avg_mshr_miss_latency::total 14769.078709                       # average overall mshr miss latency
system.cpu.icache.overall_avg_mshr_miss_latency::.cpu.inst 14769.078709                       # average overall mshr miss latency
system.cpu.icache.overall_avg_mshr_miss_latency::total 14769.078709                       # average overall mshr miss latency
system.cpu.icache.replacements                 295017                       # number of replacements
system.cpu.icache.ReadReq_hits::.cpu.inst      1978255                       # number of ReadReq hits
system.cpu.icache.ReadReq_hits::total         1978255                       # number of ReadReq hits
system.cpu.icache.ReadReq_misses::.cpu.inst       316036                       # number of ReadReq misses
system.cpu.icache.ReadReq_misses::total        316036                       # number of ReadReq misses
system.cpu.icache.ReadReq_miss_latency::.cpu.inst   4936148495                       # number of ReadReq miss cycles
system.cpu.icache.ReadReq_miss_latency::total   4936148495                       # number of ReadReq miss cycles
system.cpu.icache.ReadReq_accesses::.cpu.inst      2294291                       # number of ReadReq accesses(hits+misses)
system.cpu.icache.ReadReq_accesses::total      2294291                       # number of ReadReq accesses(hits+misses)
system.cpu.icache.ReadReq_miss_rate::.cpu.inst     0.137749                       # miss rate for ReadReq accesses
system.cpu.icache.ReadReq_miss_rate::total     0.137749                       # miss rate for ReadReq accesses
system.cpu.icache.ReadReq_avg_miss_latency::.cpu.inst 15618.943712                       # average ReadReq miss latency
system.cpu.icache.ReadReq_avg_miss_latency::total 15618.943712                       # average ReadReq miss latency
system.cpu.icache.ReadReq_mshr_hits::.cpu.inst        20340                       # number of ReadReq MSHR hits
system.cpu.icache.ReadReq_mshr_hits::total        20340                       # number of ReadReq MSHR hits
system.cpu.icache.ReadReq_mshr_misses::.cpu.inst       295696                       # number of ReadReq MSHR misses
system.cpu.icache.ReadReq_mshr_misses::total       295696                       # number of ReadReq MSHR misses
system.cpu.icache.ReadReq_mshr_miss_latency::.cpu.inst   4367157498                       # number of ReadReq MSHR miss cycles
system.cpu.icache.ReadReq_mshr_miss_latency::total   4367157498                       # number of ReadReq MSHR miss cycles
system.cpu.icache.ReadReq_mshr_miss_rate::.cpu.inst     0.128883                       # mshr miss rate for ReadReq accesses
system.cpu.icache.ReadReq_mshr_miss_rate::total     0.128883                       # mshr miss rate for ReadReq accesses
system.cpu.icache.ReadReq_avg_mshr_miss_latency::.cpu.inst 14769.078709                       # average ReadReq mshr miss latency
system.cpu.icache.ReadReq_avg_mshr_miss_latency::total 14769.078709                       # average ReadReq mshr miss latency
system.cpu.icache.power_state.pwrStateResidencyTicks::UNDEFINED   8003048500                       # Cumulative time (in ticks) in various power states
system.cpu.icache.tags.tagsinuse           509.332138                       # Cycle average of tags in use
system.cpu.icache.tags.total_refs             2273950                       # Total number of references to valid blocks.
system.cpu.icache.tags.sampled_refs            295695                       # Sample count of references to valid blocks.
system.cpu.icache.tags.avg_refs              7.690188                       # Average number of references to valid blocks.
system.cpu.icache.tags.warmup_cycle             79500                       # Cycle when the warmup percentage was hit.
system.cpu.icache.tags.occ_blocks::.cpu.inst   509.332138                       # Average occupied blocks per requestor
system.cpu.icache.tags.occ_percent::.cpu.inst     0.994789                       # Average percentage of cache occupancy
system.cpu.icache.tags.occ_percent::total     0.994789                       # Average percentage of cache occupancy
system.cpu.icache.tags.occ_task_id_blocks::1024          512                       # Occupied blocks per task id
system.cpu.icache.tags.age_task_id_blocks_1024::0          286                       # Occupied blocks per task id
system.cpu.icache.tags.age_task_id_blocks_1024::1          223                       # Occupied blocks per task id
system.cpu.icache.tags.age_task_id_blocks_1024::2            3                       # Occupied blocks per task id
system.cpu.icache.tags.occ_task_id_percent::1024            1                       # Percentage of cache occupancy per task id
system.cpu.icache.tags.tag_accesses           4884277                       # Number of tag accesses
system.cpu.icache.tags.data_accesses          4884277                       # Number of data accesses
system.cpu.icache.tags.power_state.pwrStateResidencyTicks::UNDEFINED   8003048500                       # Cumulative time (in ticks) in various power states
system.cpu.interrupts.clk_domain.clock           8000                       # Clock period in ticks
system.cpu.itb.rdAccesses                           0                       # TLB accesses on read requests
system.cpu.itb.wrAccesses                     2297061                       # TLB accesses on write requests
system.cpu.itb.rdMisses                             0                       # TLB misses on read requests
system.cpu.itb.wrMisses                         33222                       # TLB misses on write requests
system.cpu.itb.walker.power_state.pwrStateResidencyTicks::UNDEFINED   8003048500                       # Cumulative time (in ticks) in various power states
system.cpu.itb_walker_cache.blocked_cycles::no_mshrs            0                       # number of cycles access was blocked
system.cpu.itb_walker_cache.blocked_cycles::no_targets            0                       # number of cycles access was blocked
system.cpu.itb_walker_cache.blocked::no_mshrs            0                       # number of cycles access was blocked
system.cpu.itb_walker_cache.blocked::no_targets            0                       # number of cycles access was blocked
system.cpu.itb_walker_cache.avg_blocked_cycles::no_mshrs          nan                       # average number of cycles each access was blocked
system.cpu.itb_walker_cache.avg_blocked_cycles::no_targets          nan                       # average number of cycles each access was blocked
system.cpu.itb_walker_cache.replacements            0                       # number of replacements
system.cpu.itb_walker_cache.power_state.pwrStateResidencyTicks::UNDEFINED   8003048500                       # Cumulative time (in ticks) in various power states
system.cpu.itb_walker_cache.tags.tagsinuse            0                       # Cycle average of tags in use
system.cpu.itb_walker_cache.tags.total_refs            0                       # Total number of references to valid blocks.
system.cpu.itb_walker_cache.tags.sampled_refs            0                       # Sample count of references to valid blocks.
system.cpu.itb_walker_cache.tags.avg_refs          nan                       # Average number of references to valid blocks.
system.cpu.itb_walker_cache.tags.warmup_cycle            0                       # Cycle when the warmup percentage was hit.
system.cpu.itb_walker_cache.tags.tag_accesses            0                       # Number of tag accesses
system.cpu.itb_walker_cache.tags.data_accesses            0                       # Number of data accesses
system.cpu.itb_walker_cache.tags.power_state.pwrStateResidencyTicks::UNDEFINED   8003048500                       # Cumulative time (in ticks) in various power states
system.cpu.lsq0.forwLoads                      216545                       # Number of loads that had data forwarded from stores
system.cpu.lsq0.squashedLoads                  845898                       # Number of loads squashed
system.cpu.lsq0.ignoredResponses                 1639                       # Number of memory responses ignored because the instruction is squashed
system.cpu.lsq0.memOrderViolation                3969                       # Number of memory ordering violations
system.cpu.lsq0.squashedStores                 504281                       # Number of stores squashed
system.cpu.lsq0.rescheduledLoads                 6089                       # Number of loads that were rescheduled
system.cpu.lsq0.blockedByCache                    890                       # Number of times an access to memory failed due to the cache being blocked
system.cpu.power_state.pwrStateResidencyTicks::ON   8003048500                       # Cumulative time (in ticks) in various power states
system.cpu.rename.squashCycles                 186662                       # Number of cycles rename is squashing
system.cpu.rename.idleCycles                  7630439                       # Number of cycles rename is idle
system.cpu.rename.blockCycles                 1569973                       # Number of cycles rename is blocking
system.cpu.rename.serializeStallCycles           5600                       # count of cycles rename stalledfor serializing inst
system.cpu.rename.runCycles                   3990840                       # Number of cycles rename is running
system.cpu.rename.unblockCycles               1111302                       # Number of cycles rename is unblocking
system.cpu.rename.renamedInsts               25860734                       # Number of instructions processed by rename
system.cpu.rename.ROBFullEvents                 13620                       # Number of times rename has blocked due to ROB full
system.cpu.rename.IQFullEvents                 160070                       # Number of times rename has blocked due to IQ full
system.cpu.rename.LQFullEvents                  16188                       # Number of times rename has blocked due to LQ full
system.cpu.rename.SQFullEvents                 905493                       # Number of times rename has blocked due to SQ full
system.cpu.rename.renamedOperands            28748941                       # Number of destination operands rename has renamed
system.cpu.rename.lookups                    63671136                       # Number of register rename lookups that rename has made
system.cpu.rename.intLookups                 37945127                       # Number of integer rename lookups
system.cpu.rename.fpLookups                    542271                       # Number of floating rename lookups
system.cpu.rename.committedMaps              21459478                       # Number of HB maps that are committed
system.cpu.rename.undoneMaps                  7289459                       # Number of HB maps that are undone due to squashing
system.cpu.rename.serializing                     103                       # count of serializing insts renamed
system.cpu.rename.tempSerializing                  91                       # count of temporary serializing insts renamed
system.cpu.rename.skidInsts                    703536                       # count of insts added to the skid buffer
system.cpu.rob.reads                         37414641                       # The number of ROB reads
system.cpu.rob.writes                        50475711                       # The number of ROB writes
system.cpu.thread_0.numInsts                 10000000                       # Number of Instructions committed
system.cpu.thread_0.numOps                   18973114                       # Number of Ops committed
system.cpu.thread_0.numMemRefs                      0                       # Number of Memory References
system.cpu_clk_domain.clock                       500                       # Clock period in ticks
system.cpu_voltage_domain.voltage                   1                       # Voltage in Volts
system.l2.demand_hits::.cpu.inst               282862                       # number of demand (read+write) hits
system.l2.demand_hits::.cpu.data                71293                       # number of demand (read+write) hits
system.l2.demand_hits::total                   354155                       # number of demand (read+write) hits
system.l2.overall_hits::.cpu.inst              282862                       # number of overall hits
system.l2.overall_hits::.cpu.data               71293                       # number of overall hits
system.l2.overall_hits::total                  354155                       # number of overall hits
system.l2.demand_misses::.cpu.inst              12638                       # number of demand (read+write) misses
system.l2.demand_misses::.cpu.data              18428                       # number of demand (read+write) misses
system.l2.demand_misses::total                  31066                       # number of demand (read+write) misses
system.l2.overall_misses::.cpu.inst             12638                       # number of overall misses
system.l2.overall_misses::.cpu.data             18428                       # number of overall misses
system.l2.overall_misses::total                 31066                       # number of overall misses
system.l2.demand_miss_latency::.cpu.inst    925500500                       # number of demand (read+write) miss cycles
system.l2.demand_miss_latency::.cpu.data   1310495500                       # number of demand (read+write) miss cycles
system.l2.demand_miss_latency::total       2235996000                       # number of demand (read+write) miss cycles
system.l2.overall_miss_latency::.cpu.inst    925500500                       # number of overall miss cycles
system.l2.overall_miss_latency::.cpu.data   1310495500                       # number of overall miss cycles
system.l2.overall_miss_latency::total      2235996000                       # number of overall miss cycles
system.l2.demand_accesses::.cpu.inst           295500                       # number of demand (read+write) accesses
[...]
system.mem_ctrls.dram.readBursts                31023                       # Number of DRAM read bursts
system.mem_ctrls.dram.writeBursts               10033                       # Number of DRAM write bursts
system.mem_ctrls.dram.perBankRdBursts::0         2168                       # Per bank write bursts
system.mem_ctrls.dram.perBankRdBursts::1         2248                       # Per bank write bursts
system.mem_ctrls.dram.perBankRdBursts::2         2518                       # Per bank write bursts
system.mem_ctrls.dram.perBankRdBursts::3         2004                       # Per bank write bursts
system.mem_ctrls.dram.perBankRdBursts::4         2154                       # Per bank write bursts
system.mem_ctrls.dram.perBankRdBursts::5         1806                       # Per bank write bursts
system.mem_ctrls.dram.perBankRdBursts::6         1400                       # Per bank write bursts
system.mem_ctrls.dram.perBankRdBursts::7         1820                       # Per bank write bursts
system.mem_ctrls.dram.perBankRdBursts::8         1701                       # Per bank write bursts
system.mem_ctrls.dram.perBankRdBursts::9         1931                       # Per bank write bursts
system.mem_ctrls.dram.perBankRdBursts::10         2174                       # Per bank write bursts
system.mem_ctrls.dram.perBankRdBursts::11         1937                       # Per bank write bursts
system.mem_ctrls.dram.perBankRdBursts::12         1955                       # Per bank write bursts
system.mem_ctrls.dram.perBankRdBursts::13         1618                       # Per bank write bursts
system.mem_ctrls.dram.perBankRdBursts::14         1683                       # Per bank write bursts
system.mem_ctrls.dram.perBankRdBursts::15         1906                       # Per bank write bursts
system.mem_ctrls.dram.perBankWrBursts::0          827                       # Per bank write bursts
system.mem_ctrls.dram.perBankWrBursts::1          754                       # Per bank write bursts
system.mem_ctrls.dram.perBankWrBursts::2          801                       # Per bank write bursts
system.mem_ctrls.dram.perBankWrBursts::3          567                       # Per bank write bursts
system.mem_ctrls.dram.perBankWrBursts::4          592                       # Per bank write bursts
system.mem_ctrls.dram.perBankWrBursts::5          433                       # Per bank write bursts
system.mem_ctrls.dram.perBankWrBursts::6          326                       # Per bank write bursts
system.mem_ctrls.dram.perBankWrBursts::7          489                       # Per bank write bursts
system.mem_ctrls.dram.perBankWrBursts::8          507                       # Per bank write bursts
system.mem_ctrls.dram.perBankWrBursts::9          658                       # Per bank write bursts
system.mem_ctrls.dram.perBankWrBursts::10          650                       # Per bank write bursts
system.mem_ctrls.dram.perBankWrBursts::11          628                       # Per bank write bursts
system.mem_ctrls.dram.perBankWrBursts::12          732                       # Per bank write bursts
system.mem_ctrls.dram.perBankWrBursts::13          611                       # Per bank write bursts
system.mem_ctrls.dram.perBankWrBursts::14          711                       # Per bank write bursts
system.mem_ctrls.dram.perBankWrBursts::15          747                       # Per bank write bursts
system.mem_ctrls.dram.totQLat               312512500                       # Total ticks spent queuing
system.mem_ctrls.dram.totBusLat             155115000                       # Total ticks spent in databus transfers
system.mem_ctrls.dram.totMemAccLat          894193750                       # Total ticks spent from burst creation until serviced by the DRAM
system.mem_ctrls.dram.avgQLat                10073.57                       # Average queueing delay per DRAM burst
system.mem_ctrls.dram.avgBusLat               5000.00                       # Average bus latency per DRAM burst
system.mem_ctrls.dram.avgMemAccLat           28823.57                       # Average memory access latency per DRAM burst
system.mem_ctrls.dram.readRowHits               23105                       # Number of row buffer hits during reads
system.mem_ctrls.dram.writeRowHits               6167                       # Number of row buffer hits during writes
system.mem_ctrls.dram.readRowHitRate            74.48                       # Row buffer hit rate for reads
system.mem_ctrls.dram.writeRowHitRate           61.47                       # Row buffer hit rate for writes
system.mem_ctrls.dram.bytesPerActivate::samples        11780                       # Bytes accessed per row activation
system.mem_ctrls.dram.bytesPerActivate::mean   223.000340                       # Bytes accessed per row activation
system.mem_ctrls.dram.bytesPerActivate::gmean   141.639531                       # Bytes accessed per row activation
system.mem_ctrls.dram.bytesPerActivate::stdev   255.283232                       # Bytes accessed per row activation
system.mem_ctrls.dram.bytesPerActivate::0-127         5187     44.03%     44.03% # Bytes accessed per row activation
system.mem_ctrls.dram.bytesPerActivate::128-255         3332     28.29%     72.32% # Bytes accessed per row activation
system.mem_ctrls.dram.bytesPerActivate::256-383         1190     10.10%     82.42% # Bytes accessed per row activation
system.mem_ctrls.dram.bytesPerActivate::384-511          562      4.77%     87.19% # Bytes accessed per row activation
system.mem_ctrls.dram.bytesPerActivate::512-639          384      3.26%     90.45% # Bytes accessed per row activation
system.mem_ctrls.dram.bytesPerActivate::640-767          228      1.94%     92.39% # Bytes accessed per row activation
system.mem_ctrls.dram.bytesPerActivate::768-895          181      1.54%     93.92% # Bytes accessed per row activation
system.mem_ctrls.dram.bytesPerActivate::896-1023          102      0.87%     94.79% # Bytes accessed per row activation
system.mem_ctrls.dram.bytesPerActivate::1024-1151          614      5.21%    100.00% # Bytes accessed per row activation
system.mem_ctrls.dram.bytesPerActivate::total        11780                       # Bytes accessed per row activation
system.mem_ctrls.dram.bytesRead               1985472                       # Total number of bytes read from DRAM
system.mem_ctrls.dram.bytesWritten             642112                       # Total number of bytes written to DRAM
system.mem_ctrls.dram.avgRdBW              248.089462                       # Average DRAM read bandwidth in MiBytes/s
system.mem_ctrls.dram.avgWrBW               80.233426                       # Average DRAM write bandwidth in MiBytes/s
system.mem_ctrls.dram.peakBW                 12800.00                       # Theoretical peak bandwidth in MiByte/s
system.mem_ctrls.dram.busUtil                    2.57                       # Data bus utilization in percentage
system.mem_ctrls.dram.busUtilRead                1.94                       # Data bus utilization in percentage for reads
system.mem_ctrls.dram.busUtilWrite               0.63                       # Data bus utilization in percentage for writes
system.mem_ctrls.dram.pageHitRate               71.30                       # Row buffer hit rate, read and write combined
system.mem_ctrls.dram.power_state.pwrStateResidencyTicks::UNDEFINED   8003048500                       # Cumulative time (in ticks) in various power states
system.mem_ctrls.dram.rank0.actEnergy        42304500                       # Energy for activate commands per rank (pJ)
system.mem_ctrls.dram.rank0.preEnergy        22473990                       # Energy for precharge commands per rank (pJ)
system.mem_ctrls.dram.rank0.readEnergy      115082520                       # Energy for read commands per rank (pJ)
system.mem_ctrls.dram.rank0.writeEnergy      24998580                       # Energy for write commands per rank (pJ)
system.mem_ctrls.dram.rank0.refreshEnergy 631235280.000000                       # Energy for refresh commands per rank (pJ)
system.mem_ctrls.dram.rank0.actBackEnergy   2189872740                       # Energy for active background per rank (pJ)
system.mem_ctrls.dram.rank0.preBackEnergy   1229067360                       # Energy for precharge background per rank (pJ)
system.mem_ctrls.dram.rank0.actPowerDownEnergy            0                       # Energy for active power-down per rank (pJ)
system.mem_ctrls.dram.rank0.prePowerDownEnergy            0                       # Energy for precharge power-down per rank (pJ)
system.mem_ctrls.dram.rank0.selfRefreshEnergy            0                       # Energy for self refresh per rank (pJ)
system.mem_ctrls.dram.rank0.totalEnergy    4255034970                       # Total energy per rank (pJ)
system.mem_ctrls.dram.rank0.averagePower   531.676769                       # Core power per rank (mW)
system.mem_ctrls.dram.rank0.totalIdleTime            0                       # Total Idle time Per DRAM Rank
system.mem_ctrls.dram.rank0.pwrStateTime::IDLE   3173239250                       # Time in different power states
system.mem_ctrls.dram.rank0.pwrStateTime::REF    267020000                       # Time in different power states
system.mem_ctrls.dram.rank0.pwrStateTime::SREF            0                       # Time in different power states
system.mem_ctrls.dram.rank0.pwrStateTime::PRE_PDN            0                       # Time in different power states
system.mem_ctrls.dram.rank0.pwrStateTime::ACT   4562789250                       # Time in different power states
system.mem_ctrls.dram.rank0.pwrStateTime::ACT_PDN            0                       # Time in different power states
system.mem_ctrls.dram.rank1.actEnergy        41833260                       # Energy for activate commands per rank (pJ)
system.mem_ctrls.dram.rank1.preEnergy        22231110                       # Energy for precharge commands per rank (pJ)
system.mem_ctrls.dram.rank1.readEnergy      106421700                       # Energy for read commands per rank (pJ)
system.mem_ctrls.dram.rank1.writeEnergy      27373680                       # Energy for write commands per rank (pJ)
system.mem_ctrls.dram.rank1.refreshEnergy 631235280.000000                       # Energy for refresh commands per rank (pJ)
system.mem_ctrls.dram.rank1.actBackEnergy   2309353290                       # Energy for active background per rank (pJ)
system.mem_ctrls.dram.rank1.preBackEnergy   1128452160                       # Energy for precharge background per rank (pJ)
system.mem_ctrls.dram.rank1.actPowerDownEnergy            0                       # Energy for active power-down per rank (pJ)
system.mem_ctrls.dram.rank1.prePowerDownEnergy            0                       # Energy for precharge power-down per rank (pJ)
system.mem_ctrls.dram.rank1.selfRefreshEnergy            0                       # Energy for self refresh per rank (pJ)
system.mem_ctrls.dram.rank1.totalEnergy    4266900480                       # Total energy per rank (pJ)
system.mem_ctrls.dram.rank1.averagePower   533.159393                       # Core power per rank (mW)
system.mem_ctrls.dram.rank1.totalIdleTime            0                       # Total Idle time Per DRAM Rank
system.mem_ctrls.dram.rank1.pwrStateTime::IDLE   2911268250                       # Time in different power states
system.mem_ctrls.dram.rank1.pwrStateTime::REF    267020000                       # Time in different power states
system.mem_ctrls.dram.rank1.pwrStateTime::SREF            0                       # Time in different power states
system.mem_ctrls.dram.rank1.pwrStateTime::PRE_PDN            0                       # Time in different power states
system.mem_ctrls.dram.rank1.pwrStateTime::ACT   4824760250                       # Time in different power states
system.mem_ctrls.dram.rank1.pwrStateTime::ACT_PDN            0                       # Time in different power states
system.mem_ctrls.power_state.pwrStateResidencyTicks::UNDEFINED   8003048500                       # Cumulative time (in ticks) in various power states
system.membus.trans_dist::ReadResp              19788                       # Transaction distribution
system.membus.trans_dist::WritebackDirty        10056                       # Transaction distribution
system.membus.trans_dist::CleanEvict            12818                       # Transaction distribution
system.membus.trans_dist::ReadExReq             11278                       # Transaction distribution
system.membus.trans_dist::ReadExResp            11278                       # Transaction distribution
system.membus.trans_dist::ReadSharedReq         19788                       # Transaction distribution
system.membus.pkt_count_system.l2.mem_side_port::system.mem_ctrls.port        85006                       # Packet count per connected requestor and responder (bytes)
system.membus.pkt_count_system.l2.mem_side_port::total        85006                       # Packet count per connected requestor and responder (bytes)
system.membus.pkt_count::total                  85006                       # Packet count per connected requestor and responder (bytes)
system.membus.pkt_size_system.l2.mem_side_port::system.mem_ctrls.port      2631808                       # Cumulative packet size per connected requestor and responder (bytes)
system.membus.pkt_size_system.l2.mem_side_port::total      2631808                       # Cumulative packet size per connected requestor and responder (bytes)
system.membus.pkt_size::total                 2631808                       # Cumulative packet size per connected requestor and responder (bytes)
system.membus.snoops                                0                       # Total snoops (count)
system.membus.snoopTraffic                          0                       # Total snoop traffic (bytes)
system.membus.snoop_fanout::samples             31066                       # Request fanout histogram
system.membus.snoop_fanout::mean                    0                       # Request fanout histogram
system.membus.snoop_fanout::stdev                   0                       # Request fanout histogram
system.membus.snoop_fanout::underflows              0      0.00%      0.00% # Request fanout histogram
system.membus.snoop_fanout::0                   31066    100.00%    100.00% # Request fanout histogram
system.membus.snoop_fanout::1                       0      0.00%    100.00% # Request fanout histogram
system.membus.snoop_fanout::overflows               0      0.00%    100.00% # Request fanout histogram
system.membus.snoop_fanout::min_value               0                       # Request fanout histogram
system.membus.snoop_fanout::max_value               0                       # Request fanout histogram
system.membus.snoop_fanout::total               31066                       # Request fanout histogram
system.membus.power_state.pwrStateResidencyTicks::UNDEFINED   8003048500                       # Cumulative time (in ticks) in various power states
system.membus.reqLayer2.occupancy            23541000                       # Layer occupancy (ticks)
system.membus.reqLayer2.utilization               0.3                       # Layer utilization (%)
system.membus.respLayer1.occupancy           38832500                       # Layer occupancy (ticks)
system.membus.respLayer1.utilization              0.5                       # Layer utilization (%)
system.tol2bus.trans_dist::ReadResp            363842                       # Transaction distribution
system.tol2bus.trans_dist::WritebackDirty        74662                       # Transaction distribution
system.tol2bus.trans_dist::WritebackClean       295017                       # Transaction distribution
system.tol2bus.trans_dist::CleanEvict           37517                       # Transaction distribution
system.tol2bus.trans_dist::UpgradeReq             174                       # Transaction distribution
system.tol2bus.trans_dist::UpgradeResp            174                       # Transaction distribution
system.tol2bus.trans_dist::ReadExReq            21574                       # Transaction distribution
system.tol2bus.trans_dist::ReadExResp           21574                       # Transaction distribution
system.tol2bus.trans_dist::ReadCleanReq        295696                       # Transaction distribution
system.tol2bus.trans_dist::ReadSharedReq        68147                       # Transaction distribution
system.tol2bus.pkt_count_system.cpu.icache.mem_side_port::system.l2.cpu_side_port       886212                       # Packet count per connected requestor and responder (bytes)
system.tol2bus.pkt_count_system.cpu.dcache.mem_side_port::system.l2.cpu_side_port       268999                       # Packet count per connected requestor and responder (bytes)
system.tol2bus.pkt_count::total               1155211                       # Packet count per connected requestor and responder (bytes)
system.tol2bus.pkt_size_system.cpu.icache.mem_side_port::system.l2.cpu_side_port     37793024                       # Cumulative packet size per connected requestor and responder (bytes)
system.tol2bus.pkt_size_system.cpu.dcache.mem_side_port::system.l2.cpu_side_port      9876928                       # Cumulative packet size per connected requestor and responder (bytes)
system.tol2bus.pkt_size::total               47669952                       # Cumulative packet size per connected requestor and responder (bytes)
system.tol2bus.snoops                           23166                       # Total snoops (count)
system.tol2bus.snoopTraffic                    656128                       # Total snoop traffic (bytes)
system.tol2bus.snoop_fanout::samples           408561                       # Request fanout histogram
system.tol2bus.snoop_fanout::mean            0.002685                       # Request fanout histogram
system.tol2bus.snoop_fanout::stdev           0.051748                       # Request fanout histogram
system.tol2bus.snoop_fanout::underflows             0      0.00%      0.00% # Request fanout histogram
system.tol2bus.snoop_fanout::0                 407464     99.73%     99.73% # Request fanout histogram
system.tol2bus.snoop_fanout::1                   1097      0.27%    100.00% # Request fanout histogram
system.tol2bus.snoop_fanout::2                      0      0.00%    100.00% # Request fanout histogram
system.tol2bus.snoop_fanout::3                      0      0.00%    100.00% # Request fanout histogram
system.tol2bus.snoop_fanout::4                      0      0.00%    100.00% # Request fanout histogram
system.tol2bus.snoop_fanout::overflows              0      0.00%    100.00% # Request fanout histogram
system.tol2bus.snoop_fanout::min_value              0                       # Request fanout histogram
system.tol2bus.snoop_fanout::max_value              1                       # Request fanout histogram
system.tol2bus.snoop_fanout::total             408561                       # Request fanout histogram
system.tol2bus.power_state.pwrStateResidencyTicks::UNDEFINED   8003048500                       # Cumulative time (in ticks) in various power states
system.tol2bus.reqLayer0.occupancy          744531500                       # Layer occupancy (ticks)
system.tol2bus.reqLayer0.utilization              9.3                       # Layer utilization (%)
system.tol2bus.respLayer0.occupancy         443641801                       # Layer occupancy (ticks)
system.tol2bus.respLayer0.utilization             5.5                       # Layer utilization (%)
system.tol2bus.respLayer1.occupancy         134730376                       # Layer occupancy (ticks)
system.tol2bus.respLayer1.utilization             1.7                       # Layer utilization (%)
system.voltage_domain.voltage                       1                       # Voltage in Volts

---------- End Simulation Statistics   ----------
