
---------- Begin Simulation Statistics ----------
final_tick                                42307249000                       # Number of ticks from beginning of simulation (restored from checkpoints and never reset)
host_inst_rate                                  74815                       # Simulator instruction rate (inst/s)
host_mem_usage                                 675124                       # Number of bytes of host memory used
host_op_rate                                   140934                       # Simulator op (including micro ops) rate (op/s)
host_seconds                                  1336.64                       # Real time elapsed on the host
host_tick_rate                               31652036                       # Simulator tick rate (ticks/s)
sim_freq                                 1000000000000                       # Frequency of simulated ticks
sim_insts                                   100000001                       # Number of instructions simulated
sim_ops                                     188377356                       # Number of ops (including micro ops) simulated
sim_seconds                                  0.042307                       # Number of seconds simulated
sim_ticks                                 42307249000                       # Number of ticks simulated
system.cpu.cc_regfile_reads                 121881245                       # number of cc regfile reads
system.cpu.cc_regfile_writes                 59090450                       # number of cc regfile writes
system.cpu.committedInsts                   100000001                       # Number of Instructions Simulated
system.cpu.committedOps                     188377356                       # Number of Ops (including micro ops) Simulated
system.cpu.cpi                               0.846145                       # CPI: Cycles Per Instruction
system.cpu.cpi_total                         0.846145                       # CPI: Total CPI of All Threads
system.cpu.fp_regfile_reads                   5567829                       # number of floating regfile reads
system.cpu.fp_regfile_writes                  3141614                       # number of floating regfile writes
system.cpu.idleCycles                           88083                       # Total number of cycles that the CPU has spent unscheduled due to idling
system.cpu.iew.branchMispredicts               732095                       # Number of branch mispredicts detected at execute
system.cpu.iew.exec_branches                 22523789                       # Number of branches executed
system.cpu.iew.exec_nop                             0                       # number of nop insts executed
system.cpu.iew.exec_rate                     2.341923                       # Inst execution rate
system.cpu.iew.exec_refs                     39584284                       # number of memory reference insts executed
system.cpu.iew.exec_stores                   15996227                       # Number of stores executed
system.cpu.iew.exec_swp                             0                       # number of swp insts executed
system.cpu.iew.iewBlockCycles                 5312234                       # Number of cycles IEW is blocking
system.cpu.iew.iewDispLoadInsts              24024736                       # Number of dispatched load instructions
system.cpu.iew.iewDispNonSpecInsts                 73                       # Number of dispatched non-speculative instructions
system.cpu.iew.iewDispSquashedInsts              6716                       # Number of squashed instructions skipped by dispatch
system.cpu.iew.iewDispStoreInsts             16288018                       # Number of dispatched store instructions
system.cpu.iew.iewDispatchedInsts           203108916                       # Number of instructions dispatched to IQ
system.cpu.iew.iewExecLoadInsts              23588057                       # Number of load instructions executed
system.cpu.iew.iewExecSquashedInsts           1697289                       # Number of squashed instructions skipped in execute
system.cpu.iew.iewExecutedInsts             198160678                       # Number of executed instructions
system.cpu.iew.iewIQFullEvents                  48742                       # Number of times the IQ has become full, causing a stall
system.cpu.iew.iewIdleCycles                        0                       # Number of cycles IEW is idle
system.cpu.iew.iewLSQFullEvents               3502834                       # Number of times the LSQ has become full, causing a stall
system.cpu.iew.iewSquashCycles                 537947                       # Number of cycles IEW is squashing
system.cpu.iew.iewUnblockCycles               3587269                       # Number of cycles IEW is unblocking
system.cpu.iew.memOrderViolationEvents           1176                       # Number of memory order violations
system.cpu.iew.predictedNotTakenIncorrect       553516                       # Number of branches that were predicted not taken incorrectly
system.cpu.iew.predictedTakenIncorrect         178579                       # Number of branches that were predicted taken incorrectly
system.cpu.iew.wb_consumers                 221763695                       # num instructions consuming a value
system.cpu.iew.wb_count                     197753978                       # cumulative count of insts written-back
system.cpu.iew.wb_fanout                     0.620660                       # average fanout of values written-back
system.cpu.iew.wb_producers                 137639757                       # num instructions producing a value
system.cpu.iew.wb_rate                       2.337117                       # insts written-back per cycle
system.cpu.iew.wb_sent                      197918781                       # cumulative count of insts sent to commit
system.cpu.int_regfile_reads                302466932                       # number of integer regfile reads
system.cpu.int_regfile_writes               157106088                       # number of integer regfile writes
system.cpu.ipc                               1.181831                       # IPC: Instructions Per Cycle
system.cpu.ipc_total                         1.181831                       # IPC: Total IPC of All Threads
system.cpu.iq.FU_type_0::No_OpClass           1749238      0.88%      0.88% # Type of FU issued
system.cpu.iq.FU_type_0::IntAlu             154048285     77.08%     77.95% # Type of FU issued
system.cpu.iq.FU_type_0::IntMult               750790      0.38%     78.33% # Type of FU issued
system.cpu.iq.FU_type_0::IntDiv                812974      0.41%     78.74% # Type of FU issued
system.cpu.iq.FU_type_0::FloatAdd              477834      0.24%     78.98% # Type of FU issued
system.cpu.iq.FU_type_0::FloatCmp                   0      0.00%     78.98% # Type of FU issued
system.cpu.iq.FU_type_0::FloatCvt                  32      0.00%     78.98% # Type of FU issued
system.cpu.iq.FU_type_0::FloatMult                  0      0.00%     78.98% # Type of FU issued
system.cpu.iq.FU_type_0::FloatMultAcc               0      0.00%     78.98% # Type of FU issued
system.cpu.iq.FU_type_0::FloatDiv                   0      0.00%     78.98% # Type of FU issued
system.cpu.iq.FU_type_0::FloatMisc                  0      0.00%     78.98% # Type of FU issued
system.cpu.iq.FU_type_0::FloatSqrt                  0      0.00%     78.98% # Type of FU issued
system.cpu.iq.FU_type_0::SimdAdd                  483      0.00%     78.98% # Type of FU issued
system.cpu.iq.FU_type_0::SimdAddAcc                 0      0.00%     78.98% # Type of FU issued
system.cpu.iq.FU_type_0::SimdAlu               193779      0.10%     79.07% # Type of FU issued
system.cpu.iq.FU_type_0::SimdCmp                   20      0.00%     79.07% # Type of FU issued
system.cpu.iq.FU_type_0::SimdCvt               403832      0.20%     79.27% # Type of FU issued
system.cpu.iq.FU_type_0::SimdMisc             1264936      0.63%     79.91% # Type of FU issued
system.cpu.iq.FU_type_0::SimdMult                   0      0.00%     79.91% # Type of FU issued
system.cpu.iq.FU_type_0::SimdMultAcc                0      0.00%     79.91% # Type of FU issued
system.cpu.iq.FU_type_0::SimdShift                378      0.00%     79.91% # Type of FU issued
system.cpu.iq.FU_type_0::SimdShiftAcc               0      0.00%     79.91% # Type of FU issued
system.cpu.iq.FU_type_0::SimdDiv                    0      0.00%     79.91% # Type of FU issued
system.cpu.iq.FU_type_0::SimdSqrt                   0      0.00%     79.91% # Type of FU issued
system.cpu.iq.FU_type_0::SimdFloatAdd               0      0.00%     79.91% # Type of FU issued
system.cpu.iq.FU_type_0::SimdFloatAlu               0      0.00%     79.91% # Type of FU issued
system.cpu.iq.FU_type_0::SimdFloatCmp               0      0.00%     79.91% # Type of FU issued
system.cpu.iq.FU_type_0::SimdFloatCvt               4      0.00%     79.91% # Type of FU issued
system.cpu.iq.FU_type_0::SimdFloatDiv               0      0.00%     79.91% # Type of FU issued
system.cpu.iq.FU_type_0::SimdFloatMisc              0      0.00%     79.91% # Type of FU issued
system.cpu.iq.FU_type_0::SimdFloatMult              2      0.00%     79.91% # Type of FU issued
system.cpu.iq.FU_type_0::SimdFloatMultAcc            0      0.00%     79.91% # Type of FU issued
system.cpu.iq.FU_type_0::SimdFloatSqrt              0      0.00%     79.91% # Type of FU issued
system.cpu.iq.FU_type_0::SimdReduceAdd              0      0.00%     79.91% # Type of FU issued
system.cpu.iq.FU_type_0::SimdReduceAlu              0      0.00%     79.91% # Type of FU issued
system.cpu.iq.FU_type_0::SimdReduceCmp              0      0.00%     79.91% # Type of FU issued
system.cpu.iq.FU_type_0::SimdFloatReduceAdd            0      0.00%     79.91% # Type of FU issued
system.cpu.iq.FU_type_0::SimdFloatReduceCmp            0      0.00%     79.91% # Type of FU issued
system.cpu.iq.FU_type_0::SimdAes                    0      0.00%     79.91% # Type of FU issued
system.cpu.iq.FU_type_0::SimdAesMix                 0      0.00%     79.91% # Type of FU issued
system.cpu.iq.FU_type_0::SimdSha1Hash               0      0.00%     79.91% # Type of FU issued
system.cpu.iq.FU_type_0::SimdSha1Hash2              0      0.00%     79.91% # Type of FU issued
system.cpu.iq.FU_type_0::SimdSha256Hash             0      0.00%     79.91% # Type of FU issued
system.cpu.iq.FU_type_0::SimdSha256Hash2            0      0.00%     79.91% # Type of FU issued
system.cpu.iq.FU_type_0::SimdShaSigma2              0      0.00%     79.91% # Type of FU issued
system.cpu.iq.FU_type_0::SimdShaSigma3              0      0.00%     79.91% # Type of FU issued
system.cpu.iq.FU_type_0::SimdPredAlu                0      0.00%     79.91% # Type of FU issued
system.cpu.iq.FU_type_0::MemRead             22928039     11.47%     91.38% # Type of FU issued
system.cpu.iq.FU_type_0::MemWrite            14580070      7.30%     98.68% # Type of FU issued
system.cpu.iq.FU_type_0::FloatMemRead         1046061      0.52%     99.20% # Type of FU issued
system.cpu.iq.FU_type_0::FloatMemWrite        1601215      0.80%    100.00% # Type of FU issued
system.cpu.iq.FU_type_0::IprAccess                  0      0.00%    100.00% # Type of FU issued
system.cpu.iq.FU_type_0::InstPrefetch               0      0.00%    100.00% # Type of FU issued
system.cpu.iq.FU_type_0::total              199857972                       # Type of FU issued
system.cpu.iq.fp_alu_accesses                 5428364                       # Number of floating point alu accesses
system.cpu.iq.fp_inst_queue_reads            10707351                       # Number of floating instruction queue reads
system.cpu.iq.fp_inst_queue_wakeup_accesses      5059504                       # Number of floating instruction queue wakeup accesses
system.cpu.iq.fp_inst_queue_writes            6530218                       # Number of floating instruction queue writes
system.cpu.iq.fu_busy_cnt                     3382726                       # FU busy when requested
system.cpu.iq.fu_busy_rate                   0.016926                       # FU busy rate (busy events/executed inst)
system.cpu.iq.fu_full::No_OpClass                   0      0.00%      0.00% # attempts to use FU when none available
system.cpu.iq.fu_full::IntAlu                 2818722     83.33%     83.33% # attempts to use FU when none available
system.cpu.iq.fu_full::IntMult                      0      0.00%     83.33% # attempts to use FU when none available
system.cpu.iq.fu_full::IntDiv                       0      0.00%     83.33% # attempts to use FU when none available
system.cpu.iq.fu_full::FloatAdd                     0      0.00%     83.33% # attempts to use FU when none available
system.cpu.iq.fu_full::FloatCmp                     0      0.00%     83.33% # attempts to use FU when none available
system.cpu.iq.fu_full::FloatCvt                     0      0.00%     83.33% # attempts to use FU when none available
system.cpu.iq.fu_full::FloatMult                    0      0.00%     83.33% # attempts to use FU when none available
system.cpu.iq.fu_full::FloatMultAcc                 0      0.00%     83.33% # attempts to use FU when none available
system.cpu.iq.fu_full::FloatDiv                     0      0.00%     83.33% # attempts to use FU when none available
system.cpu.iq.fu_full::FloatMisc                    0      0.00%     83.33% # attempts to use FU when none available
system.cpu.iq.fu_full::FloatSqrt                    0      0.00%     83.33% # attempts to use FU when none available
system.cpu.iq.fu_full::SimdAdd                      1      0.00%     83.33% # attempts to use FU when none available
system.cpu.iq.fu_full::SimdAddAcc                   0      0.00%     83.33% # attempts to use FU when none available
system.cpu.iq.fu_full::SimdAlu                     28      0.00%     83.33% # attempts to use FU when none available
system.cpu.iq.fu_full::SimdCmp                      2      0.00%     83.33% # attempts to use FU when none available
system.cpu.iq.fu_full::SimdCvt                   6625      0.20%     83.52% # attempts to use FU when none available
system.cpu.iq.fu_full::SimdMisc                   118      0.00%     83.53% # attempts to use FU when none available
system.cpu.iq.fu_full::SimdMult                     0      0.00%     83.53% # attempts to use FU when none available
system.cpu.iq.fu_full::SimdMultAcc                  0      0.00%     83.53% # attempts to use FU when none available
system.cpu.iq.fu_full::SimdShift                    1      0.00%     83.53% # attempts to use FU when none available
system.cpu.iq.fu_full::SimdShiftAcc                 0      0.00%     83.53% # attempts to use FU when none available
system.cpu.iq.fu_full::SimdDiv                      0      0.00%     83.53% # attempts to use FU when none available
system.cpu.iq.fu_full::SimdSqrt                     0      0.00%     83.53% # attempts to use FU when none available
system.cpu.iq.fu_full::SimdFloatAdd                 0      0.00%     83.53% # attempts to use FU when none available
system.cpu.iq.fu_full::SimdFloatAlu                 0      0.00%     83.53% # attempts to use FU when none available
system.cpu.iq.fu_full::SimdFloatCmp                 0      0.00%     83.53% # attempts to use FU when none available
system.cpu.iq.fu_full::SimdFloatCvt                 0      0.00%     83.53% # attempts to use FU when none available
system.cpu.iq.fu_full::SimdFloatDiv                 0      0.00%     83.53% # attempts to use FU when none available
system.cpu.iq.fu_full::SimdFloatMisc                0      0.00%     83.53% # attempts to use FU when none available
system.cpu.iq.fu_full::SimdFloatMult                0      0.00%     83.53% # attempts to use FU when none available
system.cpu.iq.fu_full::SimdFloatMultAcc             0      0.00%     83.53% # attempts to use FU when none available
system.cpu.iq.fu_full::SimdFloatSqrt                0      0.00%     83.53% # attempts to use FU when none available
system.cpu.iq.fu_full::SimdReduceAdd                0      0.00%     83.53% # attempts to use FU when none available
system.cpu.iq.fu_full::SimdReduceAlu                0      0.00%     83.53% # attempts to use FU when none available
system.cpu.iq.fu_full::SimdReduceCmp                0      0.00%     83.53% # attempts to use FU when none available
system.cpu.iq.fu_full::SimdFloatReduceAdd            0      0.00%     83.53% # attempts to use FU when none available
system.cpu.iq.fu_full::SimdFloatReduceCmp            0      0.00%     83.53% # attempts to use FU when none available
system.cpu.iq.fu_full::SimdAes                      0      0.00%     83.53% # attempts to use FU when none available
system.cpu.iq.fu_full::SimdAesMix                   0      0.00%     83.53% # attempts to use FU when none available
system.cpu.iq.fu_full::SimdSha1Hash                 0      0.00%     83.53% # attempts to use FU when none available
system.cpu.iq.fu_full::SimdSha1Hash2                0      0.00%     83.53% # attempts to use FU when none available
system.cpu.iq.fu_full::SimdSha256Hash               0      0.00%     83.53% # attempts to use FU when none available
system.cpu.iq.fu_full::SimdSha256Hash2              0      0.00%     83.53% # attempts to use FU when none available
system.cpu.iq.fu_full::SimdShaSigma2                0      0.00%     83.53% # attempts to use FU when none available
system.cpu.iq.fu_full::SimdShaSigma3                0      0.00%     83.53% # attempts to use FU when none available
system.cpu.iq.fu_full::SimdPredAlu                  0      0.00%     83.53% # attempts to use FU when none available
system.cpu.iq.fu_full::MemRead                 312722      9.24%     92.77% # attempts to use FU when none available
system.cpu.iq.fu_full::MemWrite                104006      3.07%     95.85% # attempts to use FU when none available
system.cpu.iq.fu_full::FloatMemRead             19574      0.58%     96.43% # attempts to use FU when none available
system.cpu.iq.fu_full::FloatMemWrite           120927      3.57%    100.00% # attempts to use FU when none available
system.cpu.iq.fu_full::IprAccess                    0      0.00%    100.00% # attempts to use FU when none available
system.cpu.iq.fu_full::InstPrefetch                 0      0.00%    100.00% # attempts to use FU when none available
system.cpu.iq.int_alu_accesses              196063096                       # Number of integer alu accesses
system.cpu.iq.int_inst_queue_reads          476986751                       # Number of integer instruction queue reads
system.cpu.iq.int_inst_queue_wakeup_accesses    192694474                       # Number of integer instruction queue wakeup accesses
system.cpu.iq.int_inst_queue_writes         211311380                       # Number of integer instruction queue writes
system.cpu.iq.iqInstsAdded                  203108737                       # Number of instructions added to the IQ (excludes non-spec)
system.cpu.iq.iqInstsIssued                 199857972                       # Number of instructions issued
system.cpu.iq.iqNonSpecInstsAdded                 179                       # Number of non-speculative instructions added to the IQ
system.cpu.iq.iqSquashedInstsExamined        14731525                       # Number of squashed instructions iterated over during squash; mainly for profiling
system.cpu.iq.iqSquashedInstsIssued             69021                       # Number of squashed instructions issued
system.cpu.iq.iqSquashedNonSpecRemoved            113                       # Number of squashed non-spec instructions that were removed
system.cpu.iq.iqSquashedOperandsExamined     16943034                       # Number of squashed operands that are examined and possibly removed from graph
system.cpu.iq.issued_per_cycle::samples      84526416                       # Number of insts issued each cycle
system.cpu.iq.issued_per_cycle::mean         2.364444                       # Number of insts issued each cycle
system.cpu.iq.issued_per_cycle::stdev        2.476975                       # Number of insts issued each cycle
system.cpu.iq.issued_per_cycle::underflows            0      0.00%      0.00% # Number of insts issued each cycle
system.cpu.iq.issued_per_cycle::0            33618231     39.77%     39.77% # Number of insts issued each cycle
system.cpu.iq.issued_per_cycle::1             6530267      7.73%     47.50% # Number of insts issued each cycle
system.cpu.iq.issued_per_cycle::2             8043572      9.52%     57.01% # Number of insts issued each cycle
system.cpu.iq.issued_per_cycle::3             9126152     10.80%     67.81% # Number of insts issued each cycle
system.cpu.iq.issued_per_cycle::4             8014245      9.48%     77.29% # Number of insts issued each cycle
system.cpu.iq.issued_per_cycle::5             5887767      6.97%     84.26% # Number of insts issued each cycle
system.cpu.iq.issued_per_cycle::6             7273219      8.60%     92.86% # Number of insts issued each cycle
system.cpu.iq.issued_per_cycle::7             3536728      4.18%     97.05% # Number of insts issued each cycle
system.cpu.iq.issued_per_cycle::8             2496235      2.95%    100.00% # Number of insts issued each cycle
system.cpu.iq.issued_per_cycle::overflows            0      0.00%    100.00% # Number of insts issued each cycle
system.cpu.iq.issued_per_cycle::min_value            0                       # Number of insts issued each cycle
system.cpu.iq.issued_per_cycle::max_value            8                       # Number of insts issued each cycle
system.cpu.iq.issued_per_cycle::total        84526416                       # Number of insts issued each cycle
system.cpu.iq.rate                           2.361983                       # Inst issue rate
system.cpu.iq.vec_alu_accesses                      0                       # Number of vector alu accesses
system.cpu.iq.vec_inst_queue_reads                  0                       # Number of vector instruction queue reads
system.cpu.iq.vec_inst_queue_wakeup_accesses            0                       # Number of vector instruction queue wakeup accesses
system.cpu.iq.vec_inst_queue_writes                 0                       # Number of vector instruction queue writes
system.cpu.memDep0.conflictingLoads            655513                       # Number of conflicting loads.
system.cpu.memDep0.conflictingStores           160993                       # Number of conflicting stores.
system.cpu.memDep0.insertedLoads             24024736                       # Number of loads inserted to the mem dependence unit.
system.cpu.memDep0.insertedStores            16288018                       # Number of stores inserted to the mem dependence unit.
system.cpu.misc_regfile_reads                84438507                       # number of misc regfile reads
system.cpu.misc_regfile_writes                     18                       # number of misc regfile writes
system.cpu.numCycles                         84614499                       # number of cpu cycles simulated
system.cpu.numWorkItemsCompleted                    0                       # number of work items this cpu completed
system.cpu.numWorkItemsStarted                      0                       # number of work items this cpu started
system.cpu.timesIdled                            1308                       # Number of times that the entire CPU went into an idle state and unscheduled itself
system.cpu.workload.numSyscalls                   128                       # Number of system calls
system.membus.snoop_filter.hit_multi_requests            0                       # Number of requests hitting in the snoop filter with multiple (>1) holders of the requested data.
system.membus.snoop_filter.hit_multi_snoops            0                       # Number of snoops hitting in the snoop filter with multiple (>1) holders of the requested data.
system.membus.snoop_filter.hit_single_requests       201790                       # Number of requests hitting in the snoop filter with a single holder of the requested data.
system.membus.snoop_filter.hit_single_snoops            0                       # Number of snoops hitting in the snoop filter with a single holder of the requested data.
system.membus.snoop_filter.tot_requests        412289                       # Total number of requests made to the snoop filter.
system.membus.snoop_filter.tot_snoops               0                       # Total number of snoops made to the snoop filter.
system.tol2bus.snoop_filter.hit_multi_requests           36                       # Number of requests hitting in the snoop filter with multiple (>1) holders of the requested data.
system.tol2bus.snoop_filter.hit_multi_snoops           10                       # Number of snoops hitting in the snoop filter with multiple (>1) holders of the requested data.
system.tol2bus.snoop_filter.hit_single_requests       404048                       # Number of requests hitting in the snoop filter with a single holder of the requested data.
system.tol2bus.snoop_filter.hit_single_snoops          864                       # Number of snoops hitting in the snoop filter with a single holder of the requested data.
system.tol2bus.snoop_filter.tot_requests       809115                       # Total number of requests made to the snoop filter.
system.tol2bus.snoop_filter.tot_snoops            874                       # Total number of snoops made to the snoop filter.
system.clk_domain.clock                           250                       # Clock period in ticks
system.cpu.branchPred.lookups                24685560                       # Number of BP lookups
system.cpu.branchPred.condPredicted          20506172                       # Number of conditional branches predicted
system.cpu.branchPred.condIncorrect            629994                       # Number of conditional branches incorrect
system.cpu.branchPred.BTBLookups              9302863                       # Number of BTB lookups
system.cpu.branchPred.BTBHits                 8988442                       # Number of BTB hits
system.cpu.branchPred.BTBHitPct             96.620170                       # BTB Hit Percentage
system.cpu.branchPred.RASUsed                 1095044                       # Number of times the RAS was used to get a target.
system.cpu.branchPred.RASIncorrect                  3                       # Number of incorrect RAS predictions.
system.cpu.branchPred.indirectLookups          548530                       # Number of indirect predictor lookups.
system.cpu.branchPred.indirectHits             505676                       # Number of indirect target hits.
system.cpu.branchPred.indirectMisses            42854                       # Number of indirect misses.
system.cpu.branchPred.indirectMispredicted          356                       # Number of mispredicted indirect branches.
system.cpu.commit.commitSquashedInsts        14691455                       # The number of squashed insts skipped by commit
system.cpu.commit.commitNonSpecStalls              66                       # The number of times commit has been forced to stall to communicate backwards
system.cpu.commit.branchMispredicts            533560                       # The number of times a branch was mispredicted
system.cpu.commit.numCommittedDist::samples     82377389                       # Number of insts commited each cycle
system.cpu.commit.numCommittedDist::mean     2.286760                       # Number of insts commited each cycle
system.cpu.commit.numCommittedDist::stdev     2.814896                       # Number of insts commited each cycle
system.cpu.commit.numCommittedDist::underflows            0      0.00%      0.00% # Number of insts commited each cycle
system.cpu.commit.numCommittedDist::0        36577221     44.40%     44.40% # Number of insts commited each cycle
system.cpu.commit.numCommittedDist::1        10075167     12.23%     56.63% # Number of insts commited each cycle
system.cpu.commit.numCommittedDist::2         4956647      6.02%     62.65% # Number of insts commited each cycle
system.cpu.commit.numCommittedDist::3         9437584     11.46%     74.11% # Number of insts commited each cycle
system.cpu.commit.numCommittedDist::4         2876315      3.49%     77.60% # Number of insts commited each cycle
system.cpu.commit.numCommittedDist::5         3496916      4.24%     81.84% # Number of insts commited each cycle
system.cpu.commit.numCommittedDist::6         3273223      3.97%     85.82% # Number of insts commited each cycle
system.cpu.commit.numCommittedDist::7         2027563      2.46%     88.28% # Number of insts commited each cycle
system.cpu.commit.numCommittedDist::8         9656753     11.72%    100.00% # Number of insts commited each cycle
system.cpu.commit.numCommittedDist::overflows            0      0.00%    100.00% # Number of insts commited each cycle
system.cpu.commit.numCommittedDist::min_value            0                       # Number of insts commited each cycle
system.cpu.commit.numCommittedDist::max_value            8                       # Number of insts commited each cycle
system.cpu.commit.numCommittedDist::total     82377389                       # Number of insts commited each cycle
system.cpu.commit.instsCommitted            100000001                       # Number of instructions committed
system.cpu.commit.opsCommitted              188377356                       # Number of ops (including micro ops) committed
system.cpu.commit.memRefs                    38036846                       # Number of memory references committed
system.cpu.commit.loads                      22459262                       # Number of loads committed
system.cpu.commit.amos                              0                       # Number of atomic instructions committed
system.cpu.commit.membars                          32                       # Number of memory barriers committed
system.cpu.commit.branches                   21544942                       # Number of branches committed
system.cpu.commit.vector                            0                       # Number of committed Vector instructions.
system.cpu.commit.floating                    4463062                       # Number of committed floating point instructions.
system.cpu.commit.integer                   184964991                       # Number of committed integer instructions.
system.cpu.commit.functionCalls                984766                       # Number of function calls committed.
system.cpu.commit.committedInstType_0::No_OpClass      1710424      0.91%      0.91% # Class of committed instruction
system.cpu.commit.committedInstType_0::IntAlu    145124422     77.04%     77.95% # Class of committed instruction
system.cpu.commit.committedInstType_0::IntMult       740405      0.39%     78.34% # Class of committed instruction
system.cpu.commit.committedInstType_0::IntDiv       795782      0.42%     78.76% # Class of committed instruction
system.cpu.commit.committedInstType_0::FloatAdd       476249      0.25%     79.02% # Class of committed instruction
system.cpu.commit.committedInstType_0::FloatCmp            0      0.00%     79.02% # Class of committed instruction
system.cpu.commit.committedInstType_0::FloatCvt           32      0.00%     79.02% # Class of committed instruction
system.cpu.commit.committedInstType_0::FloatMult            0      0.00%     79.02% # Class of committed instruction
system.cpu.commit.committedInstType_0::FloatMultAcc            0      0.00%     79.02% # Class of committed instruction
system.cpu.commit.committedInstType_0::FloatDiv            0      0.00%     79.02% # Class of committed instruction
system.cpu.commit.committedInstType_0::FloatMisc            0      0.00%     79.02% # Class of committed instruction
system.cpu.commit.committedInstType_0::FloatSqrt            0      0.00%     79.02% # Class of committed instruction
system.cpu.commit.committedInstType_0::SimdAdd          398      0.00%     79.02% # Class of committed instruction
system.cpu.commit.committedInstType_0::SimdAddAcc            0      0.00%     79.02% # Class of committed instruction
system.cpu.commit.committedInstType_0::SimdAlu        96914      0.05%     79.07% # Class of committed instruction
system.cpu.commit.committedInstType_0::SimdCmp           20      0.00%     79.07% # Class of committed instruction
system.cpu.commit.committedInstType_0::SimdCvt       255066      0.14%     79.20% # Class of committed instruction
system.cpu.commit.committedInstType_0::SimdMisc      1140687      0.61%     79.81% # Class of committed instruction
system.cpu.commit.committedInstType_0::SimdMult            0      0.00%     79.81% # Class of committed instruction
system.cpu.commit.committedInstType_0::SimdMultAcc            0      0.00%     79.81% # Class of committed instruction
system.cpu.commit.committedInstType_0::SimdShift          105      0.00%     79.81% # Class of committed instruction
system.cpu.commit.committedInstType_0::SimdShiftAcc            0      0.00%     79.81% # Class of committed instruction
system.cpu.commit.committedInstType_0::SimdDiv            0      0.00%     79.81% # Class of committed instruction
system.cpu.commit.committedInstType_0::SimdSqrt            0      0.00%     79.81% # Class of committed instruction
system.cpu.commit.committedInstType_0::SimdFloatAdd            0      0.00%     79.81% # Class of committed instruction
system.cpu.commit.committedInstType_0::SimdFloatAlu            0      0.00%     79.81% # Class of committed instruction
system.cpu.commit.committedInstType_0::SimdFloatCmp            0      0.00%     79.81% # Class of committed instruction
system.cpu.commit.committedInstType_0::SimdFloatCvt            4      0.00%     79.81% # Class of committed instruction
system.cpu.commit.committedInstType_0::SimdFloatDiv            0      0.00%     79.81% # Class of committed instruction
system.cpu.commit.committedInstType_0::SimdFloatMisc            0      0.00%     79.81% # Class of committed instruction
system.cpu.commit.committedInstType_0::SimdFloatMult            2      0.00%     79.81% # Class of committed instruction
system.cpu.commit.committedInstType_0::SimdFloatMultAcc            0      0.00%     79.81% # Class of committed instruction
system.cpu.commit.committedInstType_0::SimdFloatSqrt            0      0.00%     79.81% # Class of committed instruction
system.cpu.commit.committedInstType_0::SimdReduceAdd            0      0.00%     79.81% # Class of committed instruction
system.cpu.commit.committedInstType_0::SimdReduceAlu            0      0.00%     79.81% # Class of committed instruction
system.cpu.commit.committedInstType_0::SimdReduceCmp            0      0.00%     79.81% # Class of committed instruction
system.cpu.commit.committedInstType_0::SimdFloatReduceAdd            0      0.00%     79.81% # Class of committed instruction
system.cpu.commit.committedInstType_0::SimdFloatReduceCmp            0      0.00%     79.81% # Class of committed instruction
system.cpu.commit.committedInstType_0::SimdAes            0      0.00%     79.81% # Class of committed instruction
system.cpu.commit.committedInstType_0::SimdAesMix            0      0.00%     79.81% # Class of committed instruction
system.cpu.commit.committedInstType_0::SimdSha1Hash            0      0.00%     79.81% # Class of committed instruction
system.cpu.commit.committedInstType_0::SimdSha1Hash2            0      0.00%     79.81% # Class of committed instruction
system.cpu.commit.committedInstType_0::SimdSha256Hash            0      0.00%     79.81% # Class of committed instruction
system.cpu.commit.committedInstType_0::SimdSha256Hash2            0      0.00%     79.81% # Class of committed instruction
system.cpu.commit.committedInstType_0::SimdShaSigma2            0      0.00%     79.81% # Class of committed instruction
system.cpu.commit.committedInstType_0::SimdShaSigma3            0      0.00%     79.81% # Class of committed instruction
system.cpu.commit.committedInstType_0::SimdPredAlu            0      0.00%     79.81% # Class of committed instruction
system.cpu.commit.committedInstType_0::MemRead     21743474     11.54%     91.35% # Class of committed instruction
system.cpu.commit.committedInstType_0::MemWrite     14086201      7.48%     98.83% # Class of committed instruction
system.cpu.commit.committedInstType_0::FloatMemRead       715788      0.38%     99.21% # Class of committed instruction
system.cpu.commit.committedInstType_0::FloatMemWrite      1491383      0.79%    100.00% # Class of committed instruction
system.cpu.commit.committedInstType_0::IprAccess            0      0.00%    100.00% # Class of committed instruction
system.cpu.commit.committedInstType_0::InstPrefetch            0      0.00%    100.00% # Class of committed instruction
system.cpu.commit.committedInstType_0::total    188377356                       # Class of committed instruction
system.cpu.commit.commitEligibleSamples       9656753                       # number cycles where commit BW limit reached
system.cpu.dcache.demand_hits::.cpu.data     34724400                       # number of demand (read+write) hits
system.cpu.dcache.demand_hits::total         34724400                       # number of demand (read+write) hits
system.cpu.dcache.overall_hits::.cpu.data     34724400                       # number of overall hits
system.cpu.dcache.overall_hits::total        34724400                       # number of overall hits
system.cpu.dcache.demand_misses::.cpu.data       349371                       # number of demand (read+write) misses
system.cpu.dcache.demand_misses::total         349371                       # number of demand (read+write) misses
system.cpu.dcache.overall_misses::.cpu.data       349371                       # number of overall misses
system.cpu.dcache.overall_misses::total        349371                       # number of overall misses
system.cpu.dcache.demand_miss_latency::.cpu.data  22737756992                       # number of demand (read+write) miss cycles
system.cpu.dcache.demand_miss_latency::total  22737756992                       # number of demand (read+write) miss cycles
system.cpu.dcache.overall_miss_latency::.cpu.data  22737756992                       # number of overall miss cycles
system.cpu.dcache.overall_miss_latency::total  22737756992                       # number of overall miss cycles
system.cpu.dcache.demand_accesses::.cpu.data     35073771                       # number of demand (read+write) accesses
system.cpu.dcache.demand_accesses::total     35073771                       # number of demand (read+write) accesses
system.cpu.dcache.overall_accesses::.cpu.data     35073771                       # number of overall (read+write) accesses
system.cpu.dcache.overall_accesses::total     35073771                       # number of overall (read+write) accesses
system.cpu.dcache.demand_miss_rate::.cpu.data     0.009961                       # miss rate for demand accesses
system.cpu.dcache.demand_miss_rate::total     0.009961                       # miss rate for demand accesses
system.cpu.dcache.overall_miss_rate::.cpu.data     0.009961                       # miss rate for overall accesses
system.cpu.dcache.overall_miss_rate::total     0.009961                       # miss rate for overall accesses
system.cpu.dcache.demand_avg_miss_latency::.cpu.data 65081.981595                       # average overall miss latency
system.cpu.dcache.demand_avg_miss_latency::total 65081.981595                       # average overall miss latency
system.cpu.dcache.overall_avg_miss_latency::.cpu.data 65081.981595                       # average overall miss latency
system.cpu.dcache.overall_avg_miss_latency::total 65081.981595                       # average overall miss latency
system.cpu.dcache.blocked_cycles::no_mshrs        22111                       # number of cycles access was blocked
system.cpu.dcache.blocked_cycles::no_targets            0                       # number of cycles access was blocked
system.cpu.dcache.blocked::no_mshrs               840                       # number of cycles access was blocked
system.cpu.dcache.blocked::no_targets               0                       # number of cycles access was blocked
system.cpu.dcache.avg_blocked_cycles::no_mshrs    26.322619                       # average number of cycles each access was blocked
system.cpu.dcache.avg_blocked_cycles::no_targets          nan                       # average number of cycles each access was blocked
system.cpu.dcache.writebacks::.writebacks       243190                       # number of writebacks
system.cpu.dcache.writebacks::total            243190                       # number of writebacks
system.cpu.dcache.demand_mshr_hits::.cpu.data        90216                       # number of demand (read+write) MSHR hits
system.cpu.dcache.demand_mshr_hits::total        90216                       # number of demand (read+write) MSHR hits
system.cpu.dcache.overall_mshr_hits::.cpu.data        90216                       # number of overall MSHR hits
system.cpu.dcache.overall_mshr_hits::total        90216                       # number of overall MSHR hits
system.cpu.dcache.demand_mshr_misses::.cpu.data       259155                       # number of demand (read+write) MSHR misses
system.cpu.dcache.demand_mshr_misses::total       259155                       # number of demand (read+write) MSHR misses
system.cpu.dcache.overall_mshr_misses::.cpu.data       259155                       # number of overall MSHR misses
system.cpu.dcache.overall_mshr_misses::total       259155                       # number of overall MSHR misses
system.cpu.dcache.demand_mshr_miss_latency::.cpu.data  18312425492                       # number of demand (read+write) MSHR miss cycles
system.cpu.dcache.demand_mshr_miss_latency::total  18312425492                       # number of demand (read+write) MSHR miss cycles
system.cpu.dcache.overall_mshr_miss_latency::.cpu.data  18312425492                       # number of overall MSHR miss cycles
system.cpu.dcache.overall_mshr_miss_latency::total  18312425492                       # number of overall MSHR miss cycles
system.cpu.dcache.demand_mshr_miss_rate::.cpu.data     0.007389                       # mshr miss rate for demand accesses
system.cpu.dcache.demand_mshr_miss_rate::total     0.007389                       # mshr miss rate for demand accesses
system.cpu.dcache.overall_mshr_miss_rate::.cpu.data     0.007389                       # mshr miss rate for overall accesses
system.cpu.dcache.overall_mshr_miss_rate::total     0.007389                       # mshr miss rate for overall accesses
system.cpu.dcache.demand_avg_mshr_miss_latency::.cpu.data 70662.057425                       # average overall mshr miss latency
system.cpu.dcache.demand_avg_mshr_miss_latency::total 70662.057425                       # average overall mshr miss latency
system.cpu.dcache.overall_avg_mshr_miss_latency::.cpu.data 70662.057425                       # average overall mshr miss latency
system.cpu.dcache.overall_avg_mshr_miss_latency::total 70662.057425                       # average overall mshr miss latency
system.cpu.dcache.replacements                 258642                       # number of replacements
system.cpu.dcache.ReadReq_hits::.cpu.data     19340481                       # number of ReadReq hits
system.cpu.dcache.ReadReq_hits::total        19340481                       # number of ReadReq hits
system.cpu.dcache.ReadReq_misses::.cpu.data       155705                       # number of ReadReq misses
system.cpu.dcache.ReadReq_misses::total        155705                       # number of ReadReq misses
system.cpu.dcache.ReadReq_miss_latency::.cpu.data   8283480500                       # number of ReadReq miss cycles
system.cpu.dcache.ReadReq_miss_latency::total   8283480500                       # number of ReadReq miss cycles
system.cpu.dcache.ReadReq_accesses::.cpu.data     19496186                       # number of ReadReq accesses(hits+misses)
system.cpu.dcache.ReadReq_accesses::total     19496186                       # number of ReadReq accesses(hits+misses)
system.cpu.dcache.ReadReq_miss_rate::.cpu.data     0.007986                       # miss rate for ReadReq accesses
system.cpu.dcache.ReadReq_miss_rate::total     0.007986                       # miss rate for ReadReq accesses
system.cpu.dcache.ReadReq_avg_miss_latency::.cpu.data 53199.836229                       # average ReadReq miss latency
system.cpu.dcache.ReadReq_avg_miss_latency::total 53199.836229                       # average ReadReq miss latency
system.cpu.dcache.ReadReq_mshr_hits::.cpu.data        77680                       # number of ReadReq MSHR hits
system.cpu.dcache.ReadReq_mshr_hits::total        77680                       # number of ReadReq MSHR hits
system.cpu.dcache.ReadReq_mshr_misses::.cpu.data        78025                       # number of ReadReq MSHR misses
system.cpu.dcache.ReadReq_mshr_misses::total        78025                       # number of ReadReq MSHR misses
system.cpu.dcache.ReadReq_mshr_miss_latency::.cpu.data   4272172500                       # number of ReadReq MSHR miss cycles
system.cpu.dcache.ReadReq_mshr_miss_latency::total   4272172500                       # number of ReadReq MSHR miss cycles
system.cpu.dcache.ReadReq_mshr_miss_rate::.cpu.data     0.004002                       # mshr miss rate for ReadReq accesses
system.cpu.dcache.ReadReq_mshr_miss_rate::total     0.004002                       # mshr miss rate for ReadReq accesses
system.cpu.dcache.ReadReq_avg_mshr_miss_latency::.cpu.data 54753.892983                       # average ReadReq mshr miss latency
system.cpu.dcache.ReadReq_avg_mshr_miss_latency::total 54753.892983                       # average ReadReq mshr miss latency
system.cpu.dcache.WriteReq_hits::.cpu.data     15383919                       # number of WriteReq hits
system.cpu.dcache.WriteReq_hits::total       15383919                       # number of WriteReq hits
system.cpu.dcache.WriteReq_misses::.cpu.data       193666                       # number of WriteReq misses
system.cpu.dcache.WriteReq_misses::total       193666                       # number of WriteReq misses
system.cpu.dcache.WriteReq_miss_latency::.cpu.data  14454276492                       # number of WriteReq miss cycles
system.cpu.dcache.WriteReq_miss_latency::total  14454276492                       # number of WriteReq miss cycles
system.cpu.dcache.WriteReq_accesses::.cpu.data     15577585                       # number of WriteReq accesses(hits+misses)
system.cpu.dcache.WriteReq_accesses::total     15577585                       # number of WriteReq accesses(hits+misses)
system.cpu.dcache.WriteReq_miss_rate::.cpu.data     0.012432                       # miss rate for WriteReq accesses
system.cpu.dcache.WriteReq_miss_rate::total     0.012432                       # miss rate for WriteReq accesses
system.cpu.dcache.WriteReq_avg_miss_latency::.cpu.data 74635.075295                       # average WriteReq miss latency
system.cpu.dcache.WriteReq_avg_miss_latency::total 74635.075295                       # average WriteReq miss latency
system.cpu.dcache.WriteReq_mshr_hits::.cpu.data        12536                       # number of WriteReq MSHR hits
system.cpu.dcache.WriteReq_mshr_hits::total        12536                       # number of WriteReq MSHR hits
system.cpu.dcache.WriteReq_mshr_misses::.cpu.data       181130                       # number of WriteReq MSHR misses
system.cpu.dcache.WriteReq_mshr_misses::total       181130                       # number of WriteReq MSHR misses
system.cpu.dcache.WriteReq_mshr_miss_latency::.cpu.data  14040252992                       # number of WriteReq MSHR miss cycles
system.cpu.dcache.WriteReq_mshr_miss_latency::total  14040252992                       # number of WriteReq MSHR miss cycles
system.cpu.dcache.WriteReq_mshr_miss_rate::.cpu.data     0.011628                       # mshr miss rate for WriteReq accesses
system.cpu.dcache.WriteReq_mshr_miss_rate::total     0.011628                       # mshr miss rate for WriteReq accesses
system.cpu.dcache.WriteReq_avg_mshr_miss_latency::.cpu.data 77514.784917                       # average WriteReq mshr miss latency
system.cpu.dcache.WriteReq_avg_mshr_miss_latency::total 77514.784917                       # average WriteReq mshr miss latency
system.cpu.dcache.power_state.pwrStateResidencyTicks::UNDEFINED  42307249000                       # Cumulative time (in ticks) in various power states
system.cpu.dcache.tags.tagsinuse           511.645165                       # Cycle average of tags in use
system.cpu.dcache.tags.total_refs            34983555                       # Total number of references to valid blocks.
system.cpu.dcache.tags.sampled_refs            259154                       # Sample count of references to valid blocks.
system.cpu.dcache.tags.avg_refs            134.991376                       # Average number of references to valid blocks.
system.cpu.dcache.tags.warmup_cycle            163000                       # Cycle when the warmup percentage was hit.
system.cpu.dcache.tags.occ_blocks::.cpu.data   511.645165                       # Average occupied blocks per requestor
system.cpu.dcache.tags.occ_percent::.cpu.data     0.999307                       # Average percentage of cache occupancy
system.cpu.dcache.tags.occ_percent::total     0.999307                       # Average percentage of cache occupancy
system.cpu.dcache.tags.occ_task_id_blocks::1024          512                       # Occupied blocks per task id
system.cpu.dcache.tags.age_task_id_blocks_1024::0           32                       # Occupied blocks per task id
system.cpu.dcache.tags.age_task_id_blocks_1024::1          237                       # Occupied blocks per task id
system.cpu.dcache.tags.age_task_id_blocks_1024::2          213                       # Occupied blocks per task id
system.cpu.dcache.tags.age_task_id_blocks_1024::3           18                       # Occupied blocks per task id
system.cpu.dcache.tags.age_task_id_blocks_1024::4           12                       # Occupied blocks per task id
system.cpu.dcache.tags.occ_task_id_percent::1024            1                       # Percentage of cache occupancy per task id
system.cpu.dcache.tags.tag_accesses          70406696                       # Number of tag accesses
system.cpu.dcache.tags.data_accesses         70406696                       # Number of data accesses
system.cpu.dcache.tags.power_state.pwrStateResidencyTicks::UNDEFINED  42307249000                       # Cumulative time (in ticks) in various power states
system.cpu.decode.idleCycles                 20062320                       # Number of cycles decode is idle
system.cpu.decode.blockedCycles              30421227                       # Number of cycles decode is blocked
system.cpu.decode.runCycles                  31248043                       # Number of cycles decode is running
system.cpu.decode.unblockCycles               2256879                       # Number of cycles decode is unblocking
system.cpu.decode.squashCycles                 537947                       # Number of cycles decode is squashing
system.cpu.decode.branchResolved              8941051                       # Number of times decode resolved a  branch
system.cpu.decode.branchMispred                 96700                       # Number of times decode detected a branch misprediction
system.cpu.decode.decodedInsts              209756017                       # Number of instructions handled by decode
system.cpu.decode.squashedInsts                541785                       # Number of squashed instructions handled by decode
system.cpu.dtb.rdAccesses                    23614403                       # TLB accesses on read requests
system.cpu.dtb.wrAccesses                    15996231                       # TLB accesses on write requests
system.cpu.dtb.rdMisses                         23420                       # TLB misses on read requests
system.cpu.dtb.wrMisses                        109827                       # TLB misses on write requests
system.cpu.dtb.walker.power_state.pwrStateResidencyTicks::UNDEFINED  42307249000                       # Cumulative time (in ticks) in various power states
system.cpu.dtb_walker_cache.blocked_cycles::no_mshrs            0                       # number of cycles access was blocked
system.cpu.dtb_walker_cache.blocked_cycles::no_targets            0                       # number of cycles access was blocked
system.cpu.dtb_walker_cache.blocked::no_mshrs            0                       # number of cycles access was blocked
system.cpu.dtb_walker_cache.blocked::no_targets            0                       # number of cycles access was blocked
system.cpu.dtb_walker_cache.avg_blocked_cycles::no_mshrs          nan                       # average number of cycles each access was blocked
system.cpu.dtb_walker_cache.avg_blocked_cycles::no_targets          nan                       # average number of cycles each access was blocked
system.cpu.dtb_walker_cache.replacements            0                       # number of replacements
system.cpu.dtb_walker_cache.power_state.pwrStateResidencyTicks::UNDEFINED  42307249000                       # Cumulative time (in ticks) in various power states
system.cpu.dtb_walker_cache.tags.tagsinuse            0                       # Cycle average of tags in use
system.cpu.dtb_walker_cache.tags.total_refs            0                       # Total number of references to valid blocks.
system.cpu.dtb_walker_cache.tags.sampled_refs            0                       # Sample count of references to valid blocks.
system.cpu.dtb_walker_cache.tags.avg_refs          nan                       # Average number of references to valid blocks.
system.cpu.dtb_walker_cache.tags.warmup_cycle            0                       # Cycle when the warmup percentage was hit.
system.cpu.dtb_walker_cache.tags.tag_accesses            0                       # Number of tag accesses
system.cpu.dtb_walker_cache.tags.data_accesses            0                       # Number of data accesses
system.cpu.dtb_walker_cache.tags.power_state.pwrStateResidencyTicks::UNDEFINED  42307249000                       # Cumulative time (in ticks) in various power states
system.cpu.fetch.icacheStallCycles           21335976                       # Number of cycles fetch is stalled on an Icache miss
system.cpu.fetch.insts                      114940136                       # Number of instructions fetch has processed
system.cpu.fetch.branches                    24685560                       # Number of branches that fetch encountered
system.cpu.fetch.predictedBranches           10589162                       # Number of branches that fetch has predicted taken
system.cpu.fetch.cycles                      62553077                       # Number of cycles fetch has run and was not squashing or blocked
system.cpu.fetch.squashCycles                 1269268                       # Number of cycles fetch has spent squashing
system.cpu.fetch.miscStallCycles                  333                       # Number of cycles fetch has spent waiting on interrupts,or bad addresses, or out of MSHRs
system.cpu.fetch.pendingTrapStallCycles          2352                       # Number of stall cycles due to pending traps
system.cpu.fetch.pendingQuiesceStallCycles           12                       # Number of stall cycles due to pending quiesce instructions
system.cpu.fetch.icacheWaitRetryStallCycles           32                       # Number of stall cycles due to full MSHR
system.cpu.fetch.cacheLines                  17373321                       # Number of cache lines fetched
system.cpu.fetch.icacheSquashes                178765                       # Number of outstanding Icache misses that were squashed
system.cpu.fetch.nisnDist::samples           84526416                       # Number of instructions fetched each cycle (Total)
system.cpu.fetch.nisnDist::mean              2.556116                       # Number of instructions fetched each cycle (Total)
system.cpu.fetch.nisnDist::stdev             3.373121                       # Number of instructions fetched each cycle (Total)
system.cpu.fetch.nisnDist::underflows               0      0.00%      0.00% # Number of instructions fetched each cycle (Total)
system.cpu.fetch.nisnDist::0                 48501373     57.38%     57.38% # Number of instructions fetched each cycle (Total)
system.cpu.fetch.nisnDist::1                  1496473      1.77%     59.15% # Number of instructions fetched each cycle (Total)
system.cpu.fetch.nisnDist::2                  4063430      4.81%     63.96% # Number of instructions fetched each cycle (Total)
system.cpu.fetch.nisnDist::3                  3217732      3.81%     67.76% # Number of instructions fetched each cycle (Total)
system.cpu.fetch.nisnDist::4                  1918484      2.27%     70.03% # Number of instructions fetched each cycle (Total)
system.cpu.fetch.nisnDist::5                  2279681      2.70%     72.73% # Number of instructions fetched each cycle (Total)
system.cpu.fetch.nisnDist::6                  2356436      2.79%     75.52% # Number of instructions fetched each cycle (Total)
system.cpu.fetch.nisnDist::7                  1970618      2.33%     77.85% # Number of instructions fetched each cycle (Total)
system.cpu.fetch.nisnDist::8                 18722189     22.15%    100.00% # Number of instructions fetched each cycle (Total)
system.cpu.fetch.nisnDist::overflows                0      0.00%    100.00% # Number of instructions fetched each cycle (Total)
system.cpu.fetch.nisnDist::min_value                0                       # Number of instructions fetched each cycle (Total)
system.cpu.fetch.nisnDist::max_value                8                       # Number of instructions fetched each cycle (Total)
system.cpu.fetch.nisnDist::total             84526416                       # Number of instructions fetched each cycle (Total)
system.cpu.fetch.branchRate                  0.291741                       # Number of branch fetches per cycle
system.cpu.fetch.rate                        1.358398                       # Number of inst fetches per cycle
system.cpu.icache.demand_hits::.cpu.inst     17226650                       # number of demand (read+write) hits
system.cpu.icache.demand_hits::total         17226650                       # number of demand (read+write) hits
system.cpu.icache.overall_hits::.cpu.inst     17226650                       # number of overall hits
system.cpu.icache.overall_hits::total        17226650                       # number of overall hits
system.cpu.icache.demand_misses::.cpu.inst       146670                       # number of demand (read+write) misses
system.cpu.icache.demand_misses::total         146670                       # number of demand (read+write) misses
system.cpu.icache.overall_misses::.cpu.inst       146670                       # number of overall misses
system.cpu.icache.overall_misses::total        146670                       # number of overall misses
system.cpu.icache.demand_miss_latency::.cpu.inst   2012691500                       # number of demand (read+write) miss cycles
system.cpu.icache.demand_miss_latency::total   2012691500                       # number of demand (read+write) miss cycles
system.cpu.icache.overall_miss_latency::.cpu.inst   2012691500                       # number of overall miss cycles
system.cpu.icache.overall_miss_latency::total   2012691500                       # number of overall miss cycles
system.cpu.icache.demand_accesses::.cpu.inst     17373320                       # number of demand (read+write) accesses
system.cpu.icache.demand_accesses::total     17373320                       # number of demand (read+write) accesses
system.cpu.icache.overall_accesses::.cpu.inst     17373320                       # number of overall (read+write) accesses
system.cpu.icache.overall_accesses::total     17373320                       # number of overall (read+write) accesses
system.cpu.icache.demand_miss_rate::.cpu.inst     0.008442                       # miss rate for demand accesses
system.cpu.icache.demand_miss_rate::total     0.008442                       # miss rate for demand accesses
system.cpu.icache.overall_miss_rate::.cpu.inst     0.008442                       # miss rate for overall accesses
system.cpu.icache.overall_miss_rate::total     0.008442                       # miss rate for overall accesses
system.cpu.icache.demand_avg_miss_latency::.cpu.inst 13722.584714                       # average overall miss latency
system.cpu.icache.demand_avg_miss_latency::total 13722.584714                       # average overall miss latency
system.cpu.icache.overall_avg_miss_latency::.cpu.inst 13722.584714                       # average overall miss latency
system.cpu.icache.overall_avg_miss_latency::total 13722.584714                       # average overall miss latency
system.cpu.icache.blocked_cycles::no_mshrs          401                       # number of cycles access was blocked
system.cpu.icache.blocked_cycles::no_targets            0                       # number of cycles access was blocked
system.cpu.icache.blocked::no_mshrs                 9                       # number of cycles access was blocked
system.cpu.icache.blocked::no_targets               0                       # number of cycles access was blocked
system.cpu.icache.avg_blocked_cycles::no_mshrs    44.555556                       # average number of cycles each access was blocked
system.cpu.icache.avg_blocked_cycles::no_targets          nan                       # average number of cycles each access was blocked
system.cpu.icache.writebacks::.writebacks       145405                       # number of writebacks
system.cpu.icache.writebacks::total            145405                       # number of writebacks
system.cpu.icache.demand_mshr_hits::.cpu.inst          757                       # number of demand (read+write) MSHR hits
system.cpu.icache.demand_mshr_hits::total          757                       # number of demand (read+write) MSHR hits
system.cpu.icache.overall_mshr_hits::.cpu.inst          757                       # number of overall MSHR hits
system.cpu.icache.overall_mshr_hits::total          757                       # number of overall MSHR hits
system.cpu.icache.demand_mshr_misses::.cpu.inst       145913                       # number of demand (read+write) MSHR misses
system.cpu.icache.demand_mshr_misses::total       145913                       # number of demand (read+write) MSHR misses
system.cpu.icache.overall_mshr_misses::.cpu.inst       145913                       # number of overall MSHR misses
system.cpu.icache.overall_mshr_misses::total       145913                       # number of overall MSHR misses
system.cpu.icache.demand_mshr_miss_latency::.cpu.inst   1835878000                       # number of demand (read+write) MSHR miss cycles
system.cpu.icache.demand_mshr_miss_latency::total   1835878000                       # number of demand (read+write) MSHR miss cycles
system.cpu.icache.overall_mshr_miss_latency::.cpu.inst   1835878000                       # number of overall MSHR miss cycles
system.cpu.icache.overall_mshr_miss_latency::total   1835878000                       # number of overall MSHR miss cycles
system.cpu.icache.demand_mshr_miss_rate::.cpu.inst     0.008399                       # mshr miss rate for demand accesses
system.cpu.icache.demand_mshr_miss_rate::total     0.008399                       # mshr miss rate for demand accesses
system.cpu.icache.overall_mshr_miss_rate::.cpu.inst     0.008399                       # mshr miss rate for overall accesses
system.cpu.icache.overall_mshr_miss_rate::total     0.008399                       # mshr miss rate for overall accesses
system.cpu.icache.demand_avg_mshr_miss_latency::.cpu.inst 12582.004345                       # average overall mshr miss latency
system.cpu.icache.demand_avg_mshr_miss_latency::total 12582.004345                       # average overall mshr miss latency
system.cpu.icache.overall_avg_mshr_miss_latency::.cpu.inst 12582.004345                       # average overall mshr miss latency
system.cpu.icache.overall_avg_mshr_miss_latency::total 12582.004345                       # average overall mshr miss latency
system.cpu.icache.replacements                 145405                       # number of replacements
system.cpu.icache.ReadReq_hits::.cpu.inst     17226650                       # number of ReadReq hits
system.cpu.icache.ReadReq_hits::total        17226650                       # number of ReadReq hits
system.cpu.icache.ReadReq_misses::.cpu.inst       146670                       # number of ReadReq misses
system.cpu.icache.ReadReq_misses::total        146670                       # number of ReadReq misses
system.cpu.icache.ReadReq_miss_latency::.cpu.inst   2012691500                       # number of ReadReq miss cycles
system.cpu.icache.ReadReq_miss_latency::total   2012691500                       # number of ReadReq miss cycles
system.cpu.icache.ReadReq_accesses::.cpu.inst     17373320                       # number of ReadReq accesses(hits+misses)
system.cpu.icache.ReadReq_accesses::total     17373320                       # number of ReadReq accesses(hits+misses)
system.cpu.icache.ReadReq_miss_rate::.cpu.inst     0.008442                       # miss rate for ReadReq accesses
system.cpu.icache.ReadReq_miss_rate::total     0.008442                       # miss rate for ReadReq accesses
system.cpu.icache.ReadReq_avg_miss_latency::.cpu.inst 13722.584714                       # average ReadReq miss latency
system.cpu.icache.ReadReq_avg_miss_latency::total 13722.584714                       # average ReadReq miss latency
system.cpu.icache.ReadReq_mshr_hits::.cpu.inst          757                       # number of ReadReq MSHR hits
system.cpu.icache.ReadReq_mshr_hits::total          757                       # number of ReadReq MSHR hits
system.cpu.icache.ReadReq_mshr_misses::.cpu.inst       145913                       # number of ReadReq MSHR misses
system.cpu.icache.ReadReq_mshr_misses::total       145913                       # number of ReadReq MSHR misses
system.cpu.icache.ReadReq_mshr_miss_latency::.cpu.inst   1835878000                       # number of ReadReq MSHR miss cycles
system.cpu.icache.ReadReq_mshr_miss_latency::total   1835878000                       # number of ReadReq MSHR miss cycles
system.cpu.icache.ReadReq_mshr_miss_rate::.cpu.inst     0.008399                       # mshr miss rate for ReadReq accesses
system.cpu.icache.ReadReq_mshr_miss_rate::total     0.008399                       # mshr miss rate for ReadReq accesses
system.cpu.icache.ReadReq_avg_mshr_miss_latency::.cpu.inst 12582.004345                       # average ReadReq mshr miss latency
system.cpu.icache.ReadReq_avg_mshr_miss_latency::total 12582.004345                       # average ReadReq mshr miss latency
system.cpu.icache.power_state.pwrStateResidencyTicks::UNDEFINED  42307249000                       # Cumulative time (in ticks) in various power states
system.cpu.icache.tags.tagsinuse           506.631820                       # Cycle average of tags in use
system.cpu.icache.tags.total_refs            17372563                       # Total number of references to valid blocks.
system.cpu.icache.tags.sampled_refs            145913                       # Sample count of references to valid blocks.
system.cpu.icache.tags.avg_refs            119.061105                       # Average number of references to valid blocks.
system.cpu.icache.tags.warmup_cycle             79500                       # Cycle when the warmup percentage was hit.
system.cpu.icache.tags.occ_blocks::.cpu.inst   506.631820                       # Average occupied blocks per requestor
system.cpu.icache.tags.occ_percent::.cpu.inst     0.989515                       # Average percentage of cache occupancy
system.cpu.icache.tags.occ_percent::total     0.989515                       # Average percentage of cache occupancy
system.cpu.icache.tags.occ_task_id_blocks::1024          507                       # Occupied blocks per task id
system.cpu.icache.tags.age_task_id_blocks_1024::0            2                       # Occupied blocks per task id
system.cpu.icache.tags.age_task_id_blocks_1024::1            2                       # Occupied blocks per task id
system.cpu.icache.tags.age_task_id_blocks_1024::3            2                       # Occupied blocks per task id
system.cpu.icache.tags.age_task_id_blocks_1024::4          501                       # Occupied blocks per task id
system.cpu.icache.tags.occ_task_id_percent::1024     0.990234                       # Percentage of cache occupancy per task id
system.cpu.icache.tags.tag_accesses          34892553                       # Number of tag accesses
system.cpu.icache.tags.data_accesses         34892553                       # Number of data accesses
system.cpu.icache.tags.power_state.pwrStateResidencyTicks::UNDEFINED  42307249000                       # Cumulative time (in ticks) in various power states
system.cpu.interrupts.clk_domain.clock           8000                       # Clock period in ticks
system.cpu.itb.rdAccesses                           0                       # TLB accesses on read requests
system.cpu.itb.wrAccesses                    17373679                       # TLB accesses on write requests
system.cpu.itb.rdMisses                             0                       # TLB misses on read requests
system.cpu.itb.wrMisses                           493                       # TLB misses on write requests
system.cpu.itb.walker.power_state.pwrStateResidencyTicks::UNDEFINED  42307249000                       # Cumulative time (in ticks) in various power states
system.cpu.itb_walker_cache.blocked_cycles::no_mshrs            0                       # number of cycles access was blocked
system.cpu.itb_walker_cache.blocked_cycles::no_targets            0                       # number of cycles access was blocked
system.cpu.itb_walker_cache.blocked::no_mshrs            0                       # number of cycles access was blocked
system.cpu.itb_walker_cache.blocked::no_targets            0                       # number of cycles access was blocked
system.cpu.itb_walker_cache.avg_blocked_cycles::no_mshrs          nan                       # average number of cycles each access was blocked
system.cpu.itb_walker_cache.avg_blocked_cycles::no_targets          nan                       # average number of cycles each access was blocked
system.cpu.itb_walker_cache.replacements            0                       # number of replacements
system.cpu.itb_walker_cache.power_state.pwrStateResidencyTicks::UNDEFINED  42307249000                       # Cumulative time (in ticks) in various power states
system.cpu.itb_walker_cache.tags.tagsinuse            0                       # Cycle average of tags in use
system.cpu.itb_walker_cache.tags.total_refs            0                       # Total number of references to valid blocks.
system.cpu.itb_walker_cache.tags.sampled_refs            0                       # Sample count of references to valid blocks.
system.cpu.itb_walker_cache.tags.avg_refs          nan                       # Average number of references to valid blocks.
system.cpu.itb_walker_cache.tags.warmup_cycle            0                       # Cycle when the warmup percentage was hit.
system.cpu.itb_walker_cache.tags.tag_accesses            0                       # Number of tag accesses
system.cpu.itb_walker_cache.tags.data_accesses            0                       # Number of data accesses
system.cpu.itb_walker_cache.tags.power_state.pwrStateResidencyTicks::UNDEFINED  42307249000                       # Cumulative time (in ticks) in various power states
system.cpu.lsq0.forwLoads                     4069625                       # Number of loads that had data forwarded from stores
system.cpu.lsq0.squashedLoads                 1565474                       # Number of loads squashed
system.cpu.lsq0.ignoredResponses                25461                       # Number of memory responses ignored because the instruction is squashed
system.cpu.lsq0.memOrderViolation                1176                       # Number of memory ordering violations
system.cpu.lsq0.squashedStores                 710432                       # Number of stores squashed
system.cpu.lsq0.rescheduledLoads                48033                       # Number of loads that were rescheduled
system.cpu.lsq0.blockedByCache                    455                       # Number of times an access to memory failed due to the cache being blocked
system.cpu.power_state.pwrStateResidencyTicks::ON  42307249000                       # Cumulative time (in ticks) in various power states
system.cpu.rename.squashCycles                 537947                       # Number of cycles rename is squashing
system.cpu.rename.idleCycles                 21191759                       # Number of cycles rename is idle
system.cpu.rename.blockCycles                 9859390                       # Number of cycles rename is blocking
system.cpu.rename.serializeStallCycles           2471                       # count of cycles rename stalledfor serializing inst
system.cpu.rename.runCycles                  32319657                       # Number of cycles rename is running
system.cpu.rename.unblockCycles              20615192                       # Number of cycles rename is unblocking
system.cpu.rename.renamedInsts              207884932                       # Number of instructions processed by rename
system.cpu.rename.ROBFullEvents                 64683                       # Number of times rename has blocked due to ROB full
system.cpu.rename.IQFullEvents                 719749                       # Number of times rename has blocked due to IQ full
system.cpu.rename.LQFullEvents                    354                       # Number of times rename has blocked due to LQ full
system.cpu.rename.SQFullEvents               19535666                       # Number of times rename has blocked due to SQ full
system.cpu.rename.renamedOperands           230924341                       # Number of destination operands rename has renamed
system.cpu.rename.lookups                   543017447                       # Number of register rename lookups that rename has made
system.cpu.rename.intLookups                318130020                       # Number of integer rename lookups
system.cpu.rename.fpLookups                   6493364                       # Number of floating rename lookups
system.cpu.rename.committedMaps             208332735                       # Number of HB maps that are committed
system.cpu.rename.undoneMaps                 22591548                       # Number of HB maps that are undone due to squashing
system.cpu.rename.serializing                      52                       # count of serializing insts renamed
system.cpu.rename.tempSerializing                  23                       # count of temporary serializing insts renamed
system.cpu.rename.skidInsts                  11490309                       # count of insts added to the skid buffer
system.cpu.rob.reads                        275746456                       # The number of ROB reads
system.cpu.rob.writes                       408294301                       # The number of ROB writes
system.cpu.thread_0.numInsts                100000001                       # Number of Instructions committed
system.cpu.thread_0.numOps                  188377356                       # Number of Ops committed
system.cpu.thread_0.numMemRefs                      0                       # Number of Memory References
system.cpu_clk_domain.clock                       500                       # Clock period in ticks
system.cpu_voltage_domain.voltage                   1                       # Voltage in Volts
system.l2.demand_hits::.cpu.inst               144540                       # number of demand (read+write) hits
system.l2.demand_hits::.cpu.data                50023                       # number of demand (read+write) hits
system.l2.demand_hits::total                   194563                       # number of demand (read+write) hits
system.l2.overall_hits::.cpu.inst              144540                       # number of overall hits
system.l2.overall_hits::.cpu.data               50023                       # number of overall hits
system.l2.overall_hits::total                  194563                       # number of overall hits
system.l2.demand_misses::.cpu.inst               1372                       # number of demand (read+write) misses
system.l2.demand_misses::.cpu.data             209131                       # number of demand (read+write) misses
system.l2.demand_misses::total                 210503                       # number of demand (read+write) misses
system.l2.overall_misses::.cpu.inst              1372                       # number of overall misses
system.l2.overall_misses::.cpu.data            209131                       # number of overall misses
system.l2.overall_misses::total                210503                       # number of overall misses
system.l2.demand_miss_latency::.cpu.inst     95264000                       # number of demand (read+write) miss cycles
system.l2.demand_miss_latency::.cpu.data  17386431500                       # number of demand (read+write) miss cycles
system.l2.demand_miss_latency::total      17481695500                       # number of demand (read+write) miss cycles
system.l2.overall_miss_latency::.cpu.inst     95264000                       # number of overall miss cycles
system.l2.overall_miss_latency::.cpu.data  17386431500                       # number of overall miss cycles
system.l2.overall_miss_latency::total     17481695500                       # number of overall miss cycles
system.l2.demand_accesses::.cpu.inst           145912                       # number of demand (read+write) accesses
system.l2.demand_accesses::.cpu.data           259154                       # number of demand (read+write) accesses
system.l2.demand_accesses::total               405066                       # number of demand (read+write) accesses
system.l2.overall_accesses::.cpu.inst          145912                       # number of overall (read+write) accesses
system.l2.overall_accesses::.cpu.data          259154                       # number of overall (read+write) accesses
system.l2.overall_accesses::total              405066                       # number of overall (read+write) accesses
system.l2.demand_miss_rate::.cpu.inst        0.009403                       # miss rate for demand accesses
system.l2.demand_miss_rate::.cpu.data        0.806976                       # miss rate for demand accesses
system.l2.demand_miss_rate::total            0.519676                       # miss rate for demand accesses
system.l2.overall_miss_rate::.cpu.inst       0.009403                       # miss rate for overall accesses
system.l2.overall_miss_rate::.cpu.data       0.806976                       # miss rate for overall accesses
system.l2.overall_miss_rate::total           0.519676                       # miss rate for overall accesses
system.l2.demand_avg_miss_latency::.cpu.inst 69434.402332                       # average overall miss latency
system.l2.demand_avg_miss_latency::.cpu.data 83136.557947                       # average overall miss latency
system.l2.demand_avg_miss_latency::total 83047.251108                       # average overall miss latency
[...]
system.mem_ctrls.dram.readBursts               210496                       # Number of DRAM read bursts
system.mem_ctrls.dram.writeBursts              198724                       # Number of DRAM write bursts
system.mem_ctrls.dram.perBankRdBursts::0        12916                       # Per bank write bursts
system.mem_ctrls.dram.perBankRdBursts::1        13103                       # Per bank write bursts
system.mem_ctrls.dram.perBankRdBursts::2        13064                       # Per bank write bursts
system.mem_ctrls.dram.perBankRdBursts::3        13209                       # Per bank write bursts
system.mem_ctrls.dram.perBankRdBursts::4        13264                       # Per bank write bursts
system.mem_ctrls.dram.perBankRdBursts::5        13369                       # Per bank write bursts
system.mem_ctrls.dram.perBankRdBursts::6        13125                       # Per bank write bursts
system.mem_ctrls.dram.perBankRdBursts::7        13200                       # Per bank write bursts
system.mem_ctrls.dram.perBankRdBursts::8        13281                       # Per bank write bursts
system.mem_ctrls.dram.perBankRdBursts::9        13084                       # Per bank write bursts
system.mem_ctrls.dram.perBankRdBursts::10        13037                       # Per bank write bursts
system.mem_ctrls.dram.perBankRdBursts::11        13113                       # Per bank write bursts
system.mem_ctrls.dram.perBankRdBursts::12        13209                       # Per bank write bursts
system.mem_ctrls.dram.perBankRdBursts::13        13256                       # Per bank write bursts
system.mem_ctrls.dram.perBankRdBursts::14        13114                       # Per bank write bursts
system.mem_ctrls.dram.perBankRdBursts::15        13152                       # Per bank write bursts
system.mem_ctrls.dram.perBankWrBursts::0        12179                       # Per bank write bursts
system.mem_ctrls.dram.perBankWrBursts::1        12311                       # Per bank write bursts
system.mem_ctrls.dram.perBankWrBursts::2        12395                       # Per bank write bursts
system.mem_ctrls.dram.perBankWrBursts::3        12501                       # Per bank write bursts
system.mem_ctrls.dram.perBankWrBursts::4        12479                       # Per bank write bursts
system.mem_ctrls.dram.perBankWrBursts::5        12564                       # Per bank write bursts
system.mem_ctrls.dram.perBankWrBursts::6        12385                       # Per bank write bursts
system.mem_ctrls.dram.perBankWrBursts::7        12466                       # Per bank write bursts
system.mem_ctrls.dram.perBankWrBursts::8        12540                       # Per bank write bursts
system.mem_ctrls.dram.perBankWrBursts::9        12384                       # Per bank write bursts
system.mem_ctrls.dram.perBankWrBursts::10        12318                       # Per bank write bursts
system.mem_ctrls.dram.perBankWrBursts::11        12436                       # Per bank write bursts
system.mem_ctrls.dram.perBankWrBursts::12        12433                       # Per bank write bursts
system.mem_ctrls.dram.perBankWrBursts::13        12479                       # Per bank write bursts
system.mem_ctrls.dram.perBankWrBursts::14        12388                       # Per bank write bursts
system.mem_ctrls.dram.perBankWrBursts::15        12466                       # Per bank write bursts
system.mem_ctrls.dram.totQLat              4447586500                       # Total ticks spent queuing
system.mem_ctrls.dram.totBusLat            1052480000                       # Total ticks spent in databus transfers
system.mem_ctrls.dram.totMemAccLat         8394386500                       # Total ticks spent from burst creation until serviced by the DRAM
system.mem_ctrls.dram.avgQLat                21129.08                       # Average queueing delay per DRAM burst
system.mem_ctrls.dram.avgBusLat               5000.00                       # Average bus latency per DRAM burst
system.mem_ctrls.dram.avgMemAccLat           39879.08                       # Average memory access latency per DRAM burst
system.mem_ctrls.dram.readRowHits               78010                       # Number of row buffer hits during reads
system.mem_ctrls.dram.writeRowHits              91381                       # Number of row buffer hits during writes
system.mem_ctrls.dram.readRowHitRate            37.06                       # Row buffer hit rate for reads
system.mem_ctrls.dram.writeRowHitRate           45.98                       # Row buffer hit rate for writes
system.mem_ctrls.dram.bytesPerActivate::samples       239823                       # Bytes accessed per row activation
system.mem_ctrls.dram.bytesPerActivate::mean   109.204005                       # Bytes accessed per row activation
system.mem_ctrls.dram.bytesPerActivate::gmean    86.737437                       # Bytes accessed per row activation
system.mem_ctrls.dram.bytesPerActivate::stdev   110.794207                       # Bytes accessed per row activation
system.mem_ctrls.dram.bytesPerActivate::0-127       173944     72.53%     72.53% # Bytes accessed per row activation
system.mem_ctrls.dram.bytesPerActivate::128-255        45202     18.85%     91.38% # Bytes accessed per row activation
system.mem_ctrls.dram.bytesPerActivate::256-383         9557      3.99%     95.36% # Bytes accessed per row activation
system.mem_ctrls.dram.bytesPerActivate::384-511         5160      2.15%     97.51% # Bytes accessed per row activation
system.mem_ctrls.dram.bytesPerActivate::512-639         3515      1.47%     98.98% # Bytes accessed per row activation
system.mem_ctrls.dram.bytesPerActivate::640-767         1326      0.55%     99.53% # Bytes accessed per row activation
system.mem_ctrls.dram.bytesPerActivate::768-895          640      0.27%     99.80% # Bytes accessed per row activation
system.mem_ctrls.dram.bytesPerActivate::896-1023          213      0.09%     99.89% # Bytes accessed per row activation
system.mem_ctrls.dram.bytesPerActivate::1024-1151          266      0.11%    100.00% # Bytes accessed per row activation
system.mem_ctrls.dram.bytesPerActivate::total       239823                       # Bytes accessed per row activation
system.mem_ctrls.dram.bytesRead              13471744                       # Total number of bytes read from DRAM
system.mem_ctrls.dram.bytesWritten           12718336                       # Total number of bytes written to DRAM
system.mem_ctrls.dram.avgRdBW              318.426377                       # Average DRAM read bandwidth in MiBytes/s
system.mem_ctrls.dram.avgWrBW              300.618364                       # Average DRAM write bandwidth in MiBytes/s
system.mem_ctrls.dram.peakBW                 12800.00                       # Theoretical peak bandwidth in MiByte/s
system.mem_ctrls.dram.busUtil                    4.84                       # Data bus utilization in percentage
system.mem_ctrls.dram.busUtilRead                2.49                       # Data bus utilization in percentage for reads
system.mem_ctrls.dram.busUtilWrite               2.35                       # Data bus utilization in percentage for writes
system.mem_ctrls.dram.pageHitRate               41.39                       # Row buffer hit rate, read and write combined
system.mem_ctrls.dram.power_state.pwrStateResidencyTicks::UNDEFINED  42307249000                       # Cumulative time (in ticks) in various power states
system.mem_ctrls.dram.rank0.actEnergy       858020940                       # Energy for activate commands per rank (pJ)
system.mem_ctrls.dram.rank0.preEnergy       456037560                       # Energy for precharge commands per rank (pJ)
system.mem_ctrls.dram.rank0.readEnergy      751485000                       # Energy for read commands per rank (pJ)
system.mem_ctrls.dram.rank0.writeEnergy     518241600                       # Energy for write commands per rank (pJ)
system.mem_ctrls.dram.rank0.refreshEnergy 3339339120.000000                       # Energy for refresh commands per rank (pJ)
system.mem_ctrls.dram.rank0.actBackEnergy  18214001160                       # Energy for active background per rank (pJ)
system.mem_ctrls.dram.rank0.preBackEnergy    907877760                       # Energy for precharge background per rank (pJ)
system.mem_ctrls.dram.rank0.actPowerDownEnergy            0                       # Energy for active power-down per rank (pJ)
system.mem_ctrls.dram.rank0.prePowerDownEnergy            0                       # Energy for precharge power-down per rank (pJ)
system.mem_ctrls.dram.rank0.selfRefreshEnergy            0                       # Energy for self refresh per rank (pJ)
system.mem_ctrls.dram.rank0.totalEnergy   25045003140                       # Total energy per rank (pJ)
system.mem_ctrls.dram.rank0.averagePower   591.979004                       # Core power per rank (mW)
system.mem_ctrls.dram.rank0.totalIdleTime            0                       # Total Idle time Per DRAM Rank
system.mem_ctrls.dram.rank0.pwrStateTime::IDLE   2206864500                       # Time in different power states
system.mem_ctrls.dram.rank0.pwrStateTime::REF   1412580000                       # Time in different power states
system.mem_ctrls.dram.rank0.pwrStateTime::SREF            0                       # Time in different power states
system.mem_ctrls.dram.rank0.pwrStateTime::PRE_PDN            0                       # Time in different power states
system.mem_ctrls.dram.rank0.pwrStateTime::ACT  38687804500                       # Time in different power states
system.mem_ctrls.dram.rank0.pwrStateTime::ACT_PDN            0                       # Time in different power states
system.mem_ctrls.dram.rank1.actEnergy       854358120                       # Energy for activate commands per rank (pJ)
system.mem_ctrls.dram.rank1.preEnergy       454090725                       # Energy for precharge commands per rank (pJ)
system.mem_ctrls.dram.rank1.readEnergy      751456440                       # Energy for read commands per rank (pJ)
system.mem_ctrls.dram.rank1.writeEnergy     519097680                       # Energy for write commands per rank (pJ)
system.mem_ctrls.dram.rank1.refreshEnergy 3339339120.000000                       # Energy for refresh commands per rank (pJ)
system.mem_ctrls.dram.rank1.actBackEnergy  18179452320                       # Energy for active background per rank (pJ)
system.mem_ctrls.dram.rank1.preBackEnergy    936971520                       # Energy for precharge background per rank (pJ)
system.mem_ctrls.dram.rank1.actPowerDownEnergy            0                       # Energy for active power-down per rank (pJ)
system.mem_ctrls.dram.rank1.prePowerDownEnergy            0                       # Energy for precharge power-down per rank (pJ)
system.mem_ctrls.dram.rank1.selfRefreshEnergy            0                       # Energy for self refresh per rank (pJ)
system.mem_ctrls.dram.rank1.totalEnergy   25034765925                       # Total energy per rank (pJ)
system.mem_ctrls.dram.rank1.averagePower   591.737031                       # Core power per rank (mW)
system.mem_ctrls.dram.rank1.totalIdleTime            0                       # Total Idle time Per DRAM Rank
system.mem_ctrls.dram.rank1.pwrStateTime::IDLE   2281855750                       # Time in different power states
system.mem_ctrls.dram.rank1.pwrStateTime::REF   1412580000                       # Time in different power states
system.mem_ctrls.dram.rank1.pwrStateTime::SREF            0                       # Time in different power states
system.mem_ctrls.dram.rank1.pwrStateTime::PRE_PDN            0                       # Time in different power states
system.mem_ctrls.dram.rank1.pwrStateTime::ACT  38612813250                       # Time in different power states
system.mem_ctrls.dram.rank1.pwrStateTime::ACT_PDN            0                       # Time in different power states
system.mem_ctrls.power_state.pwrStateResidencyTicks::UNDEFINED  42307249000                       # Cumulative time (in ticks) in various power states
system.membus.trans_dist::ReadResp              49189                       # Transaction distribution
system.membus.trans_dist::WritebackDirty       198752                       # Transaction distribution
system.membus.trans_dist::CleanEvict             3034                       # Transaction distribution
system.membus.trans_dist::ReadExReq            161314                       # Transaction distribution
system.membus.trans_dist::ReadExResp           161314                       # Transaction distribution
system.membus.trans_dist::ReadSharedReq         49189                       # Transaction distribution
system.membus.pkt_count_system.l2.mem_side_port::system.mem_ctrls.port       622792                       # Packet count per connected requestor and responder (bytes)
system.membus.pkt_count_system.l2.mem_side_port::total       622792                       # Packet count per connected requestor and responder (bytes)
system.membus.pkt_count::total                 622792                       # Packet count per connected requestor and responder (bytes)
system.membus.pkt_size_system.l2.mem_side_port::system.mem_ctrls.port     26192320                       # Cumulative packet size per connected requestor and responder (bytes)
system.membus.pkt_size_system.l2.mem_side_port::total     26192320                       # Cumulative packet size per connected requestor and responder (bytes)
system.membus.pkt_size::total                26192320                       # Cumulative packet size per connected requestor and responder (bytes)
system.membus.snoops                                0                       # Total snoops (count)
system.membus.snoopTraffic                          0                       # Total snoop traffic (bytes)
system.membus.snoop_fanout::samples            210503                       # Request fanout histogram
system.membus.snoop_fanout::mean                    0                       # Request fanout histogram
system.membus.snoop_fanout::stdev                   0                       # Request fanout histogram
system.membus.snoop_fanout::underflows              0      0.00%      0.00% # Request fanout histogram
system.membus.snoop_fanout::0                  210503    100.00%    100.00% # Request fanout histogram
system.membus.snoop_fanout::1                       0      0.00%    100.00% # Request fanout histogram
system.membus.snoop_fanout::overflows               0      0.00%    100.00% # Request fanout histogram
system.membus.snoop_fanout::min_value               0                       # Request fanout histogram
system.membus.snoop_fanout::max_value               0                       # Request fanout histogram
system.membus.snoop_fanout::total              210503                       # Request fanout histogram
system.membus.power_state.pwrStateResidencyTicks::UNDEFINED  42307249000                       # Cumulative time (in ticks) in various power states
system.membus.reqLayer2.occupancy           301824250                       # Layer occupancy (ticks)
system.membus.reqLayer2.utilization               0.7                       # Layer utilization (%)
system.membus.respLayer1.occupancy          263128750                       # Layer occupancy (ticks)
system.membus.respLayer1.utilization              0.6                       # Layer utilization (%)
system.tol2bus.trans_dist::ReadResp            223921                       # Transaction distribution
system.tol2bus.trans_dist::WritebackDirty       441942                       # Transaction distribution
system.tol2bus.trans_dist::WritebackClean       145405                       # Transaction distribution
system.tol2bus.trans_dist::CleanEvict           19325                       # Transaction distribution
system.tol2bus.trans_dist::UpgradeReq               1                       # Transaction distribution
system.tol2bus.trans_dist::UpgradeResp              1                       # Transaction distribution
system.tol2bus.trans_dist::ReadExReq           181146                       # Transaction distribution
system.tol2bus.trans_dist::ReadExResp          181146                       # Transaction distribution
system.tol2bus.trans_dist::ReadCleanReq        145913                       # Transaction distribution
system.tol2bus.trans_dist::ReadSharedReq        78008                       # Transaction distribution
system.tol2bus.pkt_count_system.cpu.icache.mem_side_port::system.l2.cpu_side_port       437230                       # Packet count per connected requestor and responder (bytes)
system.tol2bus.pkt_count_system.cpu.dcache.mem_side_port::system.l2.cpu_side_port       776952                       # Packet count per connected requestor and responder (bytes)
system.tol2bus.pkt_count::total               1214182                       # Packet count per connected requestor and responder (bytes)
system.tol2bus.pkt_size_system.cpu.icache.mem_side_port::system.l2.cpu_side_port     18644288                       # Cumulative packet size per connected requestor and responder (bytes)
system.tol2bus.pkt_size_system.cpu.dcache.mem_side_port::system.l2.cpu_side_port     32150016                       # Cumulative packet size per connected requestor and responder (bytes)
system.tol2bus.pkt_size::total               50794304                       # Cumulative packet size per connected requestor and responder (bytes)
system.tol2bus.snoops                          202626                       # Total snoops (count)
system.tol2bus.snoopTraffic                  12720192                       # Total snoop traffic (bytes)
system.tol2bus.snoop_fanout::samples           607693                       # Request fanout histogram
system.tol2bus.snoop_fanout::mean            0.001516                       # Request fanout histogram
system.tol2bus.snoop_fanout::stdev           0.039322                       # Request fanout histogram
system.tol2bus.snoop_fanout::underflows             0      0.00%      0.00% # Request fanout histogram
system.tol2bus.snoop_fanout::0                 606782     99.85%     99.85% # Request fanout histogram
system.tol2bus.snoop_fanout::1                    901      0.15%    100.00% # Request fanout histogram
system.tol2bus.snoop_fanout::2                     10      0.00%    100.00% # Request fanout histogram
system.tol2bus.snoop_fanout::3                      0      0.00%    100.00% # Request fanout histogram
system.tol2bus.snoop_fanout::4                      0      0.00%    100.00% # Request fanout histogram
system.tol2bus.snoop_fanout::overflows              0      0.00%    100.00% # Request fanout histogram
system.tol2bus.snoop_fanout::min_value              0                       # Request fanout histogram
system.tol2bus.snoop_fanout::max_value              2                       # Request fanout histogram
system.tol2bus.snoop_fanout::total             607693                       # Request fanout histogram
system.tol2bus.power_state.pwrStateResidencyTicks::UNDEFINED  42307249000                       # Cumulative time (in ticks) in various power states
system.tol2bus.reqLayer0.occupancy          793152500                       # Layer occupancy (ticks)
system.tol2bus.reqLayer0.utilization              1.9                       # Layer utilization (%)
system.tol2bus.respLayer0.occupancy         218878482                       # Layer occupancy (ticks)
system.tol2bus.respLayer0.utilization             0.5                       # Layer utilization (%)
system.tol2bus.respLayer1.occupancy         388731500                       # Layer occupancy (ticks)
system.tol2bus.respLayer1.utilization             0.9                       # Layer utilization (%)
system.voltage_domain.voltage                       1                       # Voltage in Volts

---------- End Simulation Statistics   ----------
