Global frequency set at 1000000000000 ticks per second
Redirecting stdout to /data/home/rwa116/Project/CMPT750-Proj-Benchmark/results/X86/run_micro/MI/DefaultO3/Slow/AlwaysTakenBP/simout
Redirecting stderr to /data/home/rwa116/Project/CMPT750-Proj-Benchmark/results/X86/run_micro/MI/DefaultO3/Slow/AlwaysTakenBP/simerr
gem5 Simulator System.  http://gem5.org
gem5 is copyrighted software; use the --copyright option for details.

gem5 version 20.1.0.2
gem5 compiled Nov  2 2023 20:22:04
gem5 started Nov  2 2023 20:23:05
gem5 executing on ARCH-750, pid 2894123
command line: /data/home/rwa116/Project/CMPT750-Proj/build/X86/gem5.opt -re --outdir=/data/home/rwa116/Project/CMPT750-Proj-Benchmark/results/X86/run_micro/MI/DefaultO3/Slow/AlwaysTakenBP gem5-config/run_micro.py DefaultO3 Slow AlwaysTakenBP microbenchmark/MI/bench.X86

info: Standard input is not a terminal, disabling listeners.
1GHz
Exit Eventworkbegin
Resetting stats at the start of ROI!
Dump stats at the end of the ROI!
