
---------- Begin Simulation Statistics ----------
final_tick                                51524791000                       # Number of ticks from beginning of simulation (restored from checkpoints and never reset)
host_inst_rate                                  79974                       # Simulator instruction rate (inst/s)
host_mem_usage                                 717220                       # Number of bytes of host memory used
host_op_rate                                   132773                       # Simulator op (including micro ops) rate (op/s)
host_seconds                                  1250.40                       # Real time elapsed on the host
host_tick_rate                               41206532                       # Simulator tick rate (ticks/s)
sim_freq                                 1000000000000                       # Frequency of simulated ticks
sim_insts                                   100000001                       # Number of instructions simulated
sim_ops                                     166019455                       # Number of ops (including micro ops) simulated
sim_seconds                                  0.051525                       # Number of seconds simulated
sim_ticks                                 51524791000                       # Number of ticks simulated
system.cpu.cc_regfile_reads                  33827899                       # number of cc regfile reads
system.cpu.cc_regfile_writes                 73567688                       # number of cc regfile writes
system.cpu.committedInsts                   100000001                       # Number of Instructions Simulated
system.cpu.committedOps                     166019455                       # Number of Ops (including micro ops) Simulated
system.cpu.cpi                               1.030496                       # CPI: Cycles Per Instruction
system.cpu.cpi_total                         1.030496                       # CPI: Total CPI of All Threads
system.cpu.fp_regfile_reads                  47837381                       # number of floating regfile reads
system.cpu.fp_regfile_writes                 29605293                       # number of floating regfile writes
system.cpu.idleCycles                          194364                       # Total number of cycles that the CPU has spent unscheduled due to idling
system.cpu.iew.branchMispredicts                22380                       # Number of branch mispredicts detected at execute
system.cpu.iew.exec_branches                  5915151                       # Number of branches executed
system.cpu.iew.exec_nop                             0                       # number of nop insts executed
system.cpu.iew.exec_rate                     1.891308                       # Inst execution rate
system.cpu.iew.exec_refs                     54906614                       # number of memory reference insts executed
system.cpu.iew.exec_stores                   16875169                       # Number of stores executed
system.cpu.iew.exec_swp                             0                       # number of swp insts executed
system.cpu.iew.iewBlockCycles                18761860                       # Number of cycles IEW is blocking
system.cpu.iew.iewDispLoadInsts              38069663                       # Number of dispatched load instructions
system.cpu.iew.iewDispNonSpecInsts                263                       # Number of dispatched non-speculative instructions
system.cpu.iew.iewDispSquashedInsts              1769                       # Number of squashed instructions skipped by dispatch
system.cpu.iew.iewDispStoreInsts             17519389                       # Number of dispatched store instructions
system.cpu.iew.iewDispatchedInsts           196103832                       # Number of instructions dispatched to IQ
system.cpu.iew.iewExecLoadInsts              38031445                       # Number of load instructions executed
system.cpu.iew.iewExecSquashedInsts            131292                       # Number of squashed instructions skipped in execute
system.cpu.iew.iewExecutedInsts             194898506                       # Number of executed instructions
system.cpu.iew.iewIQFullEvents                  52980                       # Number of times the IQ has become full, causing a stall
system.cpu.iew.iewIdleCycles                        0                       # Number of cycles IEW is idle
system.cpu.iew.iewLSQFullEvents               3144415                       # Number of times the LSQ has become full, causing a stall
system.cpu.iew.iewSquashCycles                 298790                       # Number of cycles IEW is squashing
system.cpu.iew.iewUnblockCycles               3172094                       # Number of cycles IEW is unblocking
system.cpu.iew.memOrderViolationEvents            605                       # Number of memory order violations
system.cpu.iew.predictedNotTakenIncorrect        14126                       # Number of branches that were predicted not taken incorrectly
system.cpu.iew.predictedTakenIncorrect           8254                       # Number of branches that were predicted taken incorrectly
system.cpu.iew.wb_consumers                 257444995                       # num instructions consuming a value
system.cpu.iew.wb_count                     191433720                       # cumulative count of insts written-back
system.cpu.iew.wb_fanout                     0.570800                       # average fanout of values written-back
system.cpu.iew.wb_producers                 146949576                       # num instructions producing a value
system.cpu.iew.wb_rate                       1.857686                       # insts written-back per cycle
system.cpu.iew.wb_sent                      194691095                       # cumulative count of insts sent to commit
system.cpu.int_regfile_reads                321211396                       # number of integer regfile reads
system.cpu.int_regfile_writes               144646123                       # number of integer regfile writes
system.cpu.ipc                               0.970407                       # IPC: Instructions Per Cycle
system.cpu.ipc_total                         0.970407                       # IPC: Total IPC of All Threads
system.cpu.iq.FU_type_0::No_OpClass           4177508      2.14%      2.14% # Type of FU issued
system.cpu.iq.FU_type_0::IntAlu             111765814     57.31%     59.45% # Type of FU issued
system.cpu.iq.FU_type_0::IntMult              6313527      3.24%     62.69% # Type of FU issued
system.cpu.iq.FU_type_0::IntDiv                101410      0.05%     62.74% # Type of FU issued
system.cpu.iq.FU_type_0::FloatAdd             1448807      0.74%     63.48% # Type of FU issued
system.cpu.iq.FU_type_0::FloatCmp                   0      0.00%     63.48% # Type of FU issued
system.cpu.iq.FU_type_0::FloatCvt                  32      0.00%     63.48% # Type of FU issued
system.cpu.iq.FU_type_0::FloatMult                  0      0.00%     63.48% # Type of FU issued
system.cpu.iq.FU_type_0::FloatMultAcc               0      0.00%     63.48% # Type of FU issued
system.cpu.iq.FU_type_0::FloatDiv                   0      0.00%     63.48% # Type of FU issued
system.cpu.iq.FU_type_0::FloatMisc                  0      0.00%     63.48% # Type of FU issued
system.cpu.iq.FU_type_0::FloatSqrt                  0      0.00%     63.48% # Type of FU issued
system.cpu.iq.FU_type_0::SimdAdd                 3090      0.00%     63.48% # Type of FU issued
system.cpu.iq.FU_type_0::SimdAddAcc                 0      0.00%     63.48% # Type of FU issued
system.cpu.iq.FU_type_0::SimdAlu              2863234      1.47%     64.95% # Type of FU issued
system.cpu.iq.FU_type_0::SimdCmp                   72      0.00%     64.95% # Type of FU issued
system.cpu.iq.FU_type_0::SimdCvt                 7720      0.00%     64.95% # Type of FU issued
system.cpu.iq.FU_type_0::SimdMisc             2869758      1.47%     66.43% # Type of FU issued
system.cpu.iq.FU_type_0::SimdMult                 248      0.00%     66.43% # Type of FU issued
system.cpu.iq.FU_type_0::SimdMultAcc                0      0.00%     66.43% # Type of FU issued
system.cpu.iq.FU_type_0::SimdShift               2295      0.00%     66.43% # Type of FU issued
system.cpu.iq.FU_type_0::SimdShiftAcc               0      0.00%     66.43% # Type of FU issued
system.cpu.iq.FU_type_0::SimdDiv                    0      0.00%     66.43% # Type of FU issued
system.cpu.iq.FU_type_0::SimdSqrt                   0      0.00%     66.43% # Type of FU issued
system.cpu.iq.FU_type_0::SimdFloatAdd         4781151      2.45%     68.88% # Type of FU issued
system.cpu.iq.FU_type_0::SimdFloatAlu               0      0.00%     68.88% # Type of FU issued
system.cpu.iq.FU_type_0::SimdFloatCmp               0      0.00%     68.88% # Type of FU issued
system.cpu.iq.FU_type_0::SimdFloatCvt         2386462      1.22%     70.10% # Type of FU issued
system.cpu.iq.FU_type_0::SimdFloatDiv              20      0.00%     70.10% # Type of FU issued
system.cpu.iq.FU_type_0::SimdFloatMisc              0      0.00%     70.10% # Type of FU issued
system.cpu.iq.FU_type_0::SimdFloatMult        3347073      1.72%     71.82% # Type of FU issued
system.cpu.iq.FU_type_0::SimdFloatMultAcc            0      0.00%     71.82% # Type of FU issued
system.cpu.iq.FU_type_0::SimdFloatSqrt              0      0.00%     71.82% # Type of FU issued
system.cpu.iq.FU_type_0::SimdReduceAdd              0      0.00%     71.82% # Type of FU issued
system.cpu.iq.FU_type_0::SimdReduceAlu              0      0.00%     71.82% # Type of FU issued
system.cpu.iq.FU_type_0::SimdReduceCmp              0      0.00%     71.82% # Type of FU issued
system.cpu.iq.FU_type_0::SimdFloatReduceAdd            0      0.00%     71.82% # Type of FU issued
system.cpu.iq.FU_type_0::SimdFloatReduceCmp            0      0.00%     71.82% # Type of FU issued
system.cpu.iq.FU_type_0::SimdAes                    0      0.00%     71.82% # Type of FU issued
system.cpu.iq.FU_type_0::SimdAesMix                 0      0.00%     71.82% # Type of FU issued
system.cpu.iq.FU_type_0::SimdSha1Hash               0      0.00%     71.82% # Type of FU issued
system.cpu.iq.FU_type_0::SimdSha1Hash2              0      0.00%     71.82% # Type of FU issued
system.cpu.iq.FU_type_0::SimdSha256Hash             0      0.00%     71.82% # Type of FU issued
system.cpu.iq.FU_type_0::SimdSha256Hash2            0      0.00%     71.82% # Type of FU issued
system.cpu.iq.FU_type_0::SimdShaSigma2              0      0.00%     71.82% # Type of FU issued
system.cpu.iq.FU_type_0::SimdShaSigma3              0      0.00%     71.82% # Type of FU issued
system.cpu.iq.FU_type_0::SimdPredAlu                0      0.00%     71.82% # Type of FU issued
system.cpu.iq.FU_type_0::MemRead             26446537     13.56%     85.38% # Type of FU issued
system.cpu.iq.FU_type_0::MemWrite            10642896      5.46%     90.84% # Type of FU issued
system.cpu.iq.FU_type_0::FloatMemRead        11635749      5.97%     96.80% # Type of FU issued
system.cpu.iq.FU_type_0::FloatMemWrite        6236398      3.20%    100.00% # Type of FU issued
system.cpu.iq.FU_type_0::IprAccess                  0      0.00%    100.00% # Type of FU issued
system.cpu.iq.FU_type_0::InstPrefetch               0      0.00%    100.00% # Type of FU issued
system.cpu.iq.FU_type_0::total              195029801                       # Type of FU issued
system.cpu.iq.fp_alu_accesses                39365495                       # Number of floating point alu accesses
system.cpu.iq.fp_inst_queue_reads            76869506                       # Number of floating instruction queue reads
system.cpu.iq.fp_inst_queue_wakeup_accesses     37133292                       # Number of floating instruction queue wakeup accesses
system.cpu.iq.fp_inst_queue_writes           49839546                       # Number of floating instruction queue writes
system.cpu.iq.fu_busy_cnt                     3662972                       # FU busy when requested
system.cpu.iq.fu_busy_rate                   0.018782                       # FU busy rate (busy events/executed inst)
system.cpu.iq.fu_full::No_OpClass                   0      0.00%      0.00% # attempts to use FU when none available
system.cpu.iq.fu_full::IntAlu                  586453     16.01%     16.01% # attempts to use FU when none available
system.cpu.iq.fu_full::IntMult                      0      0.00%     16.01% # attempts to use FU when none available
system.cpu.iq.fu_full::IntDiv                       0      0.00%     16.01% # attempts to use FU when none available
system.cpu.iq.fu_full::FloatAdd                     0      0.00%     16.01% # attempts to use FU when none available
system.cpu.iq.fu_full::FloatCmp                     0      0.00%     16.01% # attempts to use FU when none available
system.cpu.iq.fu_full::FloatCvt                     0      0.00%     16.01% # attempts to use FU when none available
system.cpu.iq.fu_full::FloatMult                    0      0.00%     16.01% # attempts to use FU when none available
system.cpu.iq.fu_full::FloatMultAcc                 0      0.00%     16.01% # attempts to use FU when none available
system.cpu.iq.fu_full::FloatDiv                     0      0.00%     16.01% # attempts to use FU when none available
system.cpu.iq.fu_full::FloatMisc                    0      0.00%     16.01% # attempts to use FU when none available
system.cpu.iq.fu_full::FloatSqrt                    0      0.00%     16.01% # attempts to use FU when none available
system.cpu.iq.fu_full::SimdAdd                      0      0.00%     16.01% # attempts to use FU when none available
system.cpu.iq.fu_full::SimdAddAcc                   0      0.00%     16.01% # attempts to use FU when none available
system.cpu.iq.fu_full::SimdAlu                     90      0.00%     16.01% # attempts to use FU when none available
system.cpu.iq.fu_full::SimdCmp                      0      0.00%     16.01% # attempts to use FU when none available
system.cpu.iq.fu_full::SimdCvt                     56      0.00%     16.01% # attempts to use FU when none available
system.cpu.iq.fu_full::SimdMisc                    22      0.00%     16.01% # attempts to use FU when none available
system.cpu.iq.fu_full::SimdMult                     0      0.00%     16.01% # attempts to use FU when none available
system.cpu.iq.fu_full::SimdMultAcc                  0      0.00%     16.01% # attempts to use FU when none available
system.cpu.iq.fu_full::SimdShift                   58      0.00%     16.02% # attempts to use FU when none available
system.cpu.iq.fu_full::SimdShiftAcc                 0      0.00%     16.02% # attempts to use FU when none available
system.cpu.iq.fu_full::SimdDiv                      0      0.00%     16.02% # attempts to use FU when none available
system.cpu.iq.fu_full::SimdSqrt                     0      0.00%     16.02% # attempts to use FU when none available
system.cpu.iq.fu_full::SimdFloatAdd                22      0.00%     16.02% # attempts to use FU when none available
system.cpu.iq.fu_full::SimdFloatAlu                 0      0.00%     16.02% # attempts to use FU when none available
system.cpu.iq.fu_full::SimdFloatCmp                 0      0.00%     16.02% # attempts to use FU when none available
system.cpu.iq.fu_full::SimdFloatCvt                 0      0.00%     16.02% # attempts to use FU when none available
system.cpu.iq.fu_full::SimdFloatDiv                 0      0.00%     16.02% # attempts to use FU when none available
system.cpu.iq.fu_full::SimdFloatMisc                0      0.00%     16.02% # attempts to use FU when none available
system.cpu.iq.fu_full::SimdFloatMult                4      0.00%     16.02% # attempts to use FU when none available
system.cpu.iq.fu_full::SimdFloatMultAcc             0      0.00%     16.02% # attempts to use FU when none available
system.cpu.iq.fu_full::SimdFloatSqrt                0      0.00%     16.02% # attempts to use FU when none available
system.cpu.iq.fu_full::SimdReduceAdd                0      0.00%     16.02% # attempts to use FU when none available
system.cpu.iq.fu_full::SimdReduceAlu                0      0.00%     16.02% # attempts to use FU when none available
system.cpu.iq.fu_full::SimdReduceCmp                0      0.00%     16.02% # attempts to use FU when none available
system.cpu.iq.fu_full::SimdFloatReduceAdd            0      0.00%     16.02% # attempts to use FU when none available
system.cpu.iq.fu_full::SimdFloatReduceCmp            0      0.00%     16.02% # attempts to use FU when none available
system.cpu.iq.fu_full::SimdAes                      0      0.00%     16.02% # attempts to use FU when none available
system.cpu.iq.fu_full::SimdAesMix                   0      0.00%     16.02% # attempts to use FU when none available
system.cpu.iq.fu_full::SimdSha1Hash                 0      0.00%     16.02% # attempts to use FU when none available
system.cpu.iq.fu_full::SimdSha1Hash2                0      0.00%     16.02% # attempts to use FU when none available
system.cpu.iq.fu_full::SimdSha256Hash               0      0.00%     16.02% # attempts to use FU when none available
system.cpu.iq.fu_full::SimdSha256Hash2              0      0.00%     16.02% # attempts to use FU when none available
system.cpu.iq.fu_full::SimdShaSigma2                0      0.00%     16.02% # attempts to use FU when none available
system.cpu.iq.fu_full::SimdShaSigma3                0      0.00%     16.02% # attempts to use FU when none available
system.cpu.iq.fu_full::SimdPredAlu                  0      0.00%     16.02% # attempts to use FU when none available
system.cpu.iq.fu_full::MemRead                 409703     11.18%     27.20% # attempts to use FU when none available
system.cpu.iq.fu_full::MemWrite                788095     21.52%     48.72% # attempts to use FU when none available
system.cpu.iq.fu_full::FloatMemRead           1630589     44.52%     93.23% # attempts to use FU when none available
system.cpu.iq.fu_full::FloatMemWrite           247880      6.77%    100.00% # attempts to use FU when none available
system.cpu.iq.fu_full::IprAccess                    0      0.00%    100.00% # attempts to use FU when none available
system.cpu.iq.fu_full::InstPrefetch                 0      0.00%    100.00% # attempts to use FU when none available
system.cpu.iq.int_alu_accesses              155149770                       # Number of integer alu accesses
system.cpu.iq.int_inst_queue_reads          419728590                       # Number of integer instruction queue reads
system.cpu.iq.int_inst_queue_wakeup_accesses    154300428                       # Number of integer instruction queue wakeup accesses
system.cpu.iq.int_inst_queue_writes         176349168                       # Number of integer instruction queue writes
system.cpu.iq.iqInstsAdded                  196041125                       # Number of instructions added to the IQ (excludes non-spec)
system.cpu.iq.iqInstsIssued                 195029801                       # Number of instructions issued
system.cpu.iq.iqNonSpecInstsAdded               62707                       # Number of non-speculative instructions added to the IQ
system.cpu.iq.iqSquashedInstsExamined        30084299                       # Number of squashed instructions iterated over during squash; mainly for profiling
system.cpu.iq.iqSquashedInstsIssued             20306                       # Number of squashed instructions issued
system.cpu.iq.iqSquashedNonSpecRemoved          57318                       # Number of squashed non-spec instructions that were removed
system.cpu.iq.iqSquashedOperandsExamined      5519762                       # Number of squashed operands that are examined and possibly removed from graph
system.cpu.iq.issued_per_cycle::samples     102855219                       # Number of insts issued each cycle
system.cpu.iq.issued_per_cycle::mean         1.896159                       # Number of insts issued each cycle
system.cpu.iq.issued_per_cycle::stdev        2.153110                       # Number of insts issued each cycle
system.cpu.iq.issued_per_cycle::underflows            0      0.00%      0.00% # Number of insts issued each cycle
system.cpu.iq.issued_per_cycle::0            44340467     43.11%     43.11% # Number of insts issued each cycle
system.cpu.iq.issued_per_cycle::1             9898898      9.62%     52.73% # Number of insts issued each cycle
system.cpu.iq.issued_per_cycle::2            13100469     12.74%     65.47% # Number of insts issued each cycle
system.cpu.iq.issued_per_cycle::3            11202321     10.89%     76.36% # Number of insts issued each cycle
system.cpu.iq.issued_per_cycle::4             9941305      9.67%     86.03% # Number of insts issued each cycle
system.cpu.iq.issued_per_cycle::5             6365727      6.19%     92.22% # Number of insts issued each cycle
system.cpu.iq.issued_per_cycle::6             3853412      3.75%     95.96% # Number of insts issued each cycle
system.cpu.iq.issued_per_cycle::7             2612285      2.54%     98.50% # Number of insts issued each cycle
system.cpu.iq.issued_per_cycle::8             1540335      1.50%    100.00% # Number of insts issued each cycle
system.cpu.iq.issued_per_cycle::overflows            0      0.00%    100.00% # Number of insts issued each cycle
system.cpu.iq.issued_per_cycle::min_value            0                       # Number of insts issued each cycle
system.cpu.iq.issued_per_cycle::max_value            8                       # Number of insts issued each cycle
system.cpu.iq.issued_per_cycle::total       102855219                       # Number of insts issued each cycle
system.cpu.iq.rate                           1.892582                       # Inst issue rate
system.cpu.iq.vec_alu_accesses                      0                       # Number of vector alu accesses
system.cpu.iq.vec_inst_queue_reads                  0                       # Number of vector instruction queue reads
system.cpu.iq.vec_inst_queue_wakeup_accesses            0                       # Number of vector instruction queue wakeup accesses
system.cpu.iq.vec_inst_queue_writes                 0                       # Number of vector instruction queue writes
system.cpu.memDep0.conflictingLoads           2262448                       # Number of conflicting loads.
system.cpu.memDep0.conflictingStores          1708147                       # Number of conflicting stores.
system.cpu.memDep0.insertedLoads             38069663                       # Number of loads inserted to the mem dependence unit.
system.cpu.memDep0.insertedStores            17519389                       # Number of stores inserted to the mem dependence unit.
system.cpu.misc_regfile_reads                70504655                       # number of misc regfile reads
system.cpu.misc_regfile_writes                     18                       # number of misc regfile writes
system.cpu.numCycles                        103049583                       # number of cpu cycles simulated
system.cpu.numWorkItemsCompleted                    0                       # number of work items this cpu completed
system.cpu.numWorkItemsStarted                      0                       # number of work items this cpu started
system.cpu.timesIdled                            2176                       # Number of times that the entire CPU went into an idle state and unscheduled itself
system.cpu.workload.numSyscalls                   121                       # Number of system calls
system.membus.snoop_filter.hit_multi_requests            0                       # Number of requests hitting in the snoop filter with multiple (>1) holders of the requested data.
system.membus.snoop_filter.hit_multi_snoops            0                       # Number of snoops hitting in the snoop filter with multiple (>1) holders of the requested data.
system.membus.snoop_filter.hit_single_requests       379026                       # Number of requests hitting in the snoop filter with a single holder of the requested data.
system.membus.snoop_filter.hit_single_snoops            0                       # Number of snoops hitting in the snoop filter with a single holder of the requested data.
system.membus.snoop_filter.tot_requests        766760                       # Total number of requests made to the snoop filter.
system.membus.snoop_filter.tot_snoops               0                       # Total number of snoops made to the snoop filter.
system.tol2bus.snoop_filter.hit_multi_requests           21                       # Number of requests hitting in the snoop filter with multiple (>1) holders of the requested data.
system.tol2bus.snoop_filter.hit_multi_snoops            0                       # Number of snoops hitting in the snoop filter with multiple (>1) holders of the requested data.
system.tol2bus.snoop_filter.hit_single_requests       425293                       # Number of requests hitting in the snoop filter with a single holder of the requested data.
system.tol2bus.snoop_filter.hit_single_snoops         1249                       # Number of snoops hitting in the snoop filter with a single holder of the requested data.
system.tol2bus.snoop_filter.tot_requests       851614                       # Total number of requests made to the snoop filter.
system.tol2bus.snoop_filter.tot_snoops           1249                       # Total number of snoops made to the snoop filter.
system.clk_domain.clock                           250                       # Clock period in ticks
system.cpu.branchPred.lookups                 6501298                       # Number of BP lookups
system.cpu.branchPred.condPredicted           4679299                       # Number of conditional branches predicted
system.cpu.branchPred.condIncorrect             19739                       # Number of conditional branches incorrect
system.cpu.branchPred.BTBLookups              3416022                       # Number of BTB lookups
system.cpu.branchPred.BTBHits                 3404849                       # Number of BTB hits
system.cpu.branchPred.BTBHitPct             99.672924                       # BTB Hit Percentage
system.cpu.branchPred.RASUsed                  613657                       # Number of times the RAS was used to get a target.
system.cpu.branchPred.RASIncorrect                 15                       # Number of incorrect RAS predictions.
system.cpu.branchPred.indirectLookups          594057                       # Number of indirect predictor lookups.
system.cpu.branchPred.indirectHits             583131                       # Number of indirect target hits.
system.cpu.branchPred.indirectMisses            10926                       # Number of indirect misses.
system.cpu.branchPred.indirectMispredicted         1619                       # Number of mispredicted indirect branches.
system.cpu.commit.commitSquashedInsts        24547477                       # The number of squashed insts skipped by commit
system.cpu.commit.commitNonSpecStalls            5389                       # The number of times commit has been forced to stall to communicate backwards
system.cpu.commit.branchMispredicts             18708                       # The number of times a branch was mispredicted
system.cpu.commit.numCommittedDist::samples     99609922                       # Number of insts commited each cycle
system.cpu.commit.numCommittedDist::mean     1.666696                       # Number of insts commited each cycle
system.cpu.commit.numCommittedDist::stdev     2.565160                       # Number of insts commited each cycle
system.cpu.commit.numCommittedDist::underflows            0      0.00%      0.00% # Number of insts commited each cycle
system.cpu.commit.numCommittedDist::0        50242162     50.44%     50.44% # Number of insts commited each cycle
system.cpu.commit.numCommittedDist::1        19865737     19.94%     70.38% # Number of insts commited each cycle
system.cpu.commit.numCommittedDist::2         8644474      8.68%     79.06% # Number of insts commited each cycle
system.cpu.commit.numCommittedDist::3         3077514      3.09%     82.15% # Number of insts commited each cycle
system.cpu.commit.numCommittedDist::4         3162330      3.17%     85.33% # Number of insts commited each cycle
system.cpu.commit.numCommittedDist::5         1818626      1.83%     87.15% # Number of insts commited each cycle
system.cpu.commit.numCommittedDist::6         1169634      1.17%     88.33% # Number of insts commited each cycle
system.cpu.commit.numCommittedDist::7         2163586      2.17%     90.50% # Number of insts commited each cycle
system.cpu.commit.numCommittedDist::8         9465859      9.50%    100.00% # Number of insts commited each cycle
system.cpu.commit.numCommittedDist::overflows            0      0.00%    100.00% # Number of insts commited each cycle
system.cpu.commit.numCommittedDist::min_value            0                       # Number of insts commited each cycle
system.cpu.commit.numCommittedDist::max_value            8                       # Number of insts commited each cycle
system.cpu.commit.numCommittedDist::total     99609922                       # Number of insts commited each cycle
system.cpu.commit.instsCommitted            100000001                       # Number of instructions committed
system.cpu.commit.opsCommitted              166019455                       # Number of ops (including micro ops) committed
system.cpu.commit.memRefs                    39264133                       # Number of memory references committed
system.cpu.commit.loads                      30740931                       # Number of loads committed
system.cpu.commit.amos                              0                       # Number of atomic instructions committed
system.cpu.commit.membars                         176                       # Number of memory barriers committed
system.cpu.commit.branches                    4827028                       # Number of branches committed
system.cpu.commit.vector                            0                       # Number of committed Vector instructions.
system.cpu.commit.floating                   26165588                       # Number of committed floating point instructions.
system.cpu.commit.integer                   148225635                       # Number of committed integer instructions.
system.cpu.commit.functionCalls                531272                       # Number of function calls committed.
system.cpu.commit.committedInstType_0::No_OpClass      1046605      0.63%      0.63% # Class of committed instruction
system.cpu.commit.committedInstType_0::IntAlu    101615079     61.21%     61.84% # Class of committed instruction
system.cpu.commit.committedInstType_0::IntMult      6312256      3.80%     65.64% # Class of committed instruction
system.cpu.commit.committedInstType_0::IntDiv        97655      0.06%     65.70% # Class of committed instruction
system.cpu.commit.committedInstType_0::FloatAdd      1445015      0.87%     66.57% # Class of committed instruction
system.cpu.commit.committedInstType_0::FloatCmp            0      0.00%     66.57% # Class of committed instruction
system.cpu.commit.committedInstType_0::FloatCvt           32      0.00%     66.57% # Class of committed instruction
system.cpu.commit.committedInstType_0::FloatMult            0      0.00%     66.57% # Class of committed instruction
system.cpu.commit.committedInstType_0::FloatMultAcc            0      0.00%     66.57% # Class of committed instruction
system.cpu.commit.committedInstType_0::FloatDiv            0      0.00%     66.57% # Class of committed instruction
system.cpu.commit.committedInstType_0::FloatMisc            0      0.00%     66.57% # Class of committed instruction
system.cpu.commit.committedInstType_0::FloatSqrt            0      0.00%     66.57% # Class of committed instruction
system.cpu.commit.committedInstType_0::SimdAdd         2294      0.00%     66.57% # Class of committed instruction
system.cpu.commit.committedInstType_0::SimdAddAcc            0      0.00%     66.57% # Class of committed instruction
system.cpu.commit.committedInstType_0::SimdAlu      2855490      1.72%     68.29% # Class of committed instruction
system.cpu.commit.committedInstType_0::SimdCmp           66      0.00%     68.29% # Class of committed instruction
system.cpu.commit.committedInstType_0::SimdCvt         5352      0.00%     68.29% # Class of committed instruction
system.cpu.commit.committedInstType_0::SimdMisc      2865770      1.73%     70.02% # Class of committed instruction
system.cpu.commit.committedInstType_0::SimdMult          248      0.00%     70.02% # Class of committed instruction
system.cpu.commit.committedInstType_0::SimdMultAcc            0      0.00%     70.02% # Class of committed instruction
system.cpu.commit.committedInstType_0::SimdShift          900      0.00%     70.02% # Class of committed instruction
system.cpu.commit.committedInstType_0::SimdShiftAcc            0      0.00%     70.02% # Class of committed instruction
system.cpu.commit.committedInstType_0::SimdDiv            0      0.00%     70.02% # Class of committed instruction
system.cpu.commit.committedInstType_0::SimdSqrt            0      0.00%     70.02% # Class of committed instruction
system.cpu.commit.committedInstType_0::SimdFloatAdd      4779154      2.88%     72.90% # Class of committed instruction
system.cpu.commit.committedInstType_0::SimdFloatAlu            0      0.00%     72.90% # Class of committed instruction
system.cpu.commit.committedInstType_0::SimdFloatCmp            0      0.00%     72.90% # Class of committed instruction
system.cpu.commit.committedInstType_0::SimdFloatCvt      2384878      1.44%     74.34% # Class of committed instruction
system.cpu.commit.committedInstType_0::SimdFloatDiv           15      0.00%     74.34% # Class of committed instruction
system.cpu.commit.committedInstType_0::SimdFloatMisc            0      0.00%     74.34% # Class of committed instruction
system.cpu.commit.committedInstType_0::SimdFloatMult      3344513      2.01%     76.35% # Class of committed instruction
system.cpu.commit.committedInstType_0::SimdFloatMultAcc            0      0.00%     76.35% # Class of committed instruction
system.cpu.commit.committedInstType_0::SimdFloatSqrt            0      0.00%     76.35% # Class of committed instruction
system.cpu.commit.committedInstType_0::SimdReduceAdd            0      0.00%     76.35% # Class of committed instruction
system.cpu.commit.committedInstType_0::SimdReduceAlu            0      0.00%     76.35% # Class of committed instruction
system.cpu.commit.committedInstType_0::SimdReduceCmp            0      0.00%     76.35% # Class of committed instruction
system.cpu.commit.committedInstType_0::SimdFloatReduceAdd            0      0.00%     76.35% # Class of committed instruction
system.cpu.commit.committedInstType_0::SimdFloatReduceCmp            0      0.00%     76.35% # Class of committed instruction
system.cpu.commit.committedInstType_0::SimdAes            0      0.00%     76.35% # Class of committed instruction
system.cpu.commit.committedInstType_0::SimdAesMix            0      0.00%     76.35% # Class of committed instruction
system.cpu.commit.committedInstType_0::SimdSha1Hash            0      0.00%     76.35% # Class of committed instruction
system.cpu.commit.committedInstType_0::SimdSha1Hash2            0      0.00%     76.35% # Class of committed instruction
system.cpu.commit.committedInstType_0::SimdSha256Hash            0      0.00%     76.35% # Class of committed instruction
system.cpu.commit.committedInstType_0::SimdSha256Hash2            0      0.00%     76.35% # Class of committed instruction
system.cpu.commit.committedInstType_0::SimdShaSigma2            0      0.00%     76.35% # Class of committed instruction
system.cpu.commit.committedInstType_0::SimdShaSigma3            0      0.00%     76.35% # Class of committed instruction
system.cpu.commit.committedInstType_0::SimdPredAlu            0      0.00%     76.35% # Class of committed instruction
system.cpu.commit.committedInstType_0::MemRead     24849866     14.97%     91.32% # Class of committed instruction
system.cpu.commit.committedInstType_0::MemWrite      7834725      4.72%     96.04% # Class of committed instruction
system.cpu.commit.committedInstType_0::FloatMemRead      5891065      3.55%     99.59% # Class of committed instruction
system.cpu.commit.committedInstType_0::FloatMemWrite       688477      0.41%    100.00% # Class of committed instruction
system.cpu.commit.committedInstType_0::IprAccess            0      0.00%    100.00% # Class of committed instruction
system.cpu.commit.committedInstType_0::InstPrefetch            0      0.00%    100.00% # Class of committed instruction
system.cpu.commit.committedInstType_0::total    166019455                       # Class of committed instruction
system.cpu.commit.commitEligibleSamples       9465859                       # number cycles where commit BW limit reached
system.cpu.dcache.demand_hits::.cpu.data     42488127                       # number of demand (read+write) hits
system.cpu.dcache.demand_hits::total         42488127                       # number of demand (read+write) hits
system.cpu.dcache.overall_hits::.cpu.data     43824526                       # number of overall hits
system.cpu.dcache.overall_hits::total        43824526                       # number of overall hits
system.cpu.dcache.demand_misses::.cpu.data       528503                       # number of demand (read+write) misses
system.cpu.dcache.demand_misses::total         528503                       # number of demand (read+write) misses
system.cpu.dcache.overall_misses::.cpu.data       682604                       # number of overall misses
system.cpu.dcache.overall_misses::total        682604                       # number of overall misses
system.cpu.dcache.demand_miss_latency::.cpu.data  34207082942                       # number of demand (read+write) miss cycles
system.cpu.dcache.demand_miss_latency::total  34207082942                       # number of demand (read+write) miss cycles
system.cpu.dcache.overall_miss_latency::.cpu.data  34207082942                       # number of overall miss cycles
system.cpu.dcache.overall_miss_latency::total  34207082942                       # number of overall miss cycles
system.cpu.dcache.demand_accesses::.cpu.data     43016630                       # number of demand (read+write) accesses
system.cpu.dcache.demand_accesses::total     43016630                       # number of demand (read+write) accesses
system.cpu.dcache.overall_accesses::.cpu.data     44507130                       # number of overall (read+write) accesses
system.cpu.dcache.overall_accesses::total     44507130                       # number of overall (read+write) accesses
system.cpu.dcache.demand_miss_rate::.cpu.data     0.012286                       # miss rate for demand accesses
system.cpu.dcache.demand_miss_rate::total     0.012286                       # miss rate for demand accesses
system.cpu.dcache.overall_miss_rate::.cpu.data     0.015337                       # miss rate for overall accesses
system.cpu.dcache.overall_miss_rate::total     0.015337                       # miss rate for overall accesses
system.cpu.dcache.demand_avg_miss_latency::.cpu.data 64724.482060                       # average overall miss latency
system.cpu.dcache.demand_avg_miss_latency::total 64724.482060                       # average overall miss latency
system.cpu.dcache.overall_avg_miss_latency::.cpu.data 50112.631836                       # average overall miss latency
system.cpu.dcache.overall_avg_miss_latency::total 50112.631836                       # average overall miss latency
system.cpu.dcache.blocked_cycles::no_mshrs       481260                       # number of cycles access was blocked
system.cpu.dcache.blocked_cycles::no_targets          399                       # number of cycles access was blocked
system.cpu.dcache.blocked::no_mshrs              8740                       # number of cycles access was blocked
system.cpu.dcache.blocked::no_targets               4                       # number of cycles access was blocked
system.cpu.dcache.avg_blocked_cycles::no_mshrs    55.064073                       # average number of cycles each access was blocked
system.cpu.dcache.avg_blocked_cycles::no_targets    99.750000                       # average number of cycles each access was blocked
system.cpu.dcache.writebacks::.writebacks       172387                       # number of writebacks
system.cpu.dcache.writebacks::total            172387                       # number of writebacks
system.cpu.dcache.demand_mshr_hits::.cpu.data       162947                       # number of demand (read+write) MSHR hits
system.cpu.dcache.demand_mshr_hits::total       162947                       # number of demand (read+write) MSHR hits
system.cpu.dcache.overall_mshr_hits::.cpu.data       162947                       # number of overall MSHR hits
system.cpu.dcache.overall_mshr_hits::total       162947                       # number of overall MSHR hits
system.cpu.dcache.demand_mshr_misses::.cpu.data       365556                       # number of demand (read+write) MSHR misses
system.cpu.dcache.demand_mshr_misses::total       365556                       # number of demand (read+write) MSHR misses
system.cpu.dcache.overall_mshr_misses::.cpu.data       422463                       # number of overall MSHR misses
system.cpu.dcache.overall_mshr_misses::total       422463                       # number of overall MSHR misses
system.cpu.dcache.demand_mshr_miss_latency::.cpu.data  24212685442                       # number of demand (read+write) MSHR miss cycles
system.cpu.dcache.demand_mshr_miss_latency::total  24212685442                       # number of demand (read+write) MSHR miss cycles
system.cpu.dcache.overall_mshr_miss_latency::.cpu.data  28478381942                       # number of overall MSHR miss cycles
system.cpu.dcache.overall_mshr_miss_latency::total  28478381942                       # number of overall MSHR miss cycles
system.cpu.dcache.demand_mshr_miss_rate::.cpu.data     0.008498                       # mshr miss rate for demand accesses
system.cpu.dcache.demand_mshr_miss_rate::total     0.008498                       # mshr miss rate for demand accesses
system.cpu.dcache.overall_mshr_miss_rate::.cpu.data     0.009492                       # mshr miss rate for overall accesses
system.cpu.dcache.overall_mshr_miss_rate::total     0.009492                       # mshr miss rate for overall accesses
system.cpu.dcache.demand_avg_mshr_miss_latency::.cpu.data 66235.229191                       # average overall mshr miss latency
system.cpu.dcache.demand_avg_mshr_miss_latency::total 66235.229191                       # average overall mshr miss latency
system.cpu.dcache.overall_avg_mshr_miss_latency::.cpu.data 67410.357693                       # average overall mshr miss latency
system.cpu.dcache.overall_avg_mshr_miss_latency::total 67410.357693                       # average overall mshr miss latency
system.cpu.dcache.replacements                 421950                       # number of replacements
system.cpu.dcache.ReadReq_hits::.cpu.data     34132683                       # number of ReadReq hits
system.cpu.dcache.ReadReq_hits::total        34132683                       # number of ReadReq hits
system.cpu.dcache.ReadReq_misses::.cpu.data       360663                       # number of ReadReq misses
system.cpu.dcache.ReadReq_misses::total        360663                       # number of ReadReq misses
system.cpu.dcache.ReadReq_miss_latency::.cpu.data  21877736000                       # number of ReadReq miss cycles
system.cpu.dcache.ReadReq_miss_latency::total  21877736000                       # number of ReadReq miss cycles
system.cpu.dcache.ReadReq_accesses::.cpu.data     34493346                       # number of ReadReq accesses(hits+misses)
system.cpu.dcache.ReadReq_accesses::total     34493346                       # number of ReadReq accesses(hits+misses)
system.cpu.dcache.ReadReq_miss_rate::.cpu.data     0.010456                       # miss rate for ReadReq accesses
system.cpu.dcache.ReadReq_miss_rate::total     0.010456                       # miss rate for ReadReq accesses
system.cpu.dcache.ReadReq_avg_miss_latency::.cpu.data 60659.773805                       # average ReadReq miss latency
system.cpu.dcache.ReadReq_avg_miss_latency::total 60659.773805                       # average ReadReq miss latency
system.cpu.dcache.ReadReq_mshr_hits::.cpu.data       162936                       # number of ReadReq MSHR hits
system.cpu.dcache.ReadReq_mshr_hits::total       162936                       # number of ReadReq MSHR hits
system.cpu.dcache.ReadReq_mshr_misses::.cpu.data       197727                       # number of ReadReq MSHR misses
system.cpu.dcache.ReadReq_mshr_misses::total       197727                       # number of ReadReq MSHR misses
system.cpu.dcache.ReadReq_mshr_miss_latency::.cpu.data  12051691000                       # number of ReadReq MSHR miss cycles
system.cpu.dcache.ReadReq_mshr_miss_latency::total  12051691000                       # number of ReadReq MSHR miss cycles
system.cpu.dcache.ReadReq_mshr_miss_rate::.cpu.data     0.005732                       # mshr miss rate for ReadReq accesses
system.cpu.dcache.ReadReq_mshr_miss_rate::total     0.005732                       # mshr miss rate for ReadReq accesses
system.cpu.dcache.ReadReq_avg_mshr_miss_latency::.cpu.data 60951.164990                       # average ReadReq mshr miss latency
system.cpu.dcache.ReadReq_avg_mshr_miss_latency::total 60951.164990                       # average ReadReq mshr miss latency
system.cpu.dcache.WriteReq_hits::.cpu.data      8355444                       # number of WriteReq hits
system.cpu.dcache.WriteReq_hits::total        8355444                       # number of WriteReq hits
system.cpu.dcache.WriteReq_misses::.cpu.data       167840                       # number of WriteReq misses
system.cpu.dcache.WriteReq_misses::total       167840                       # number of WriteReq misses
system.cpu.dcache.WriteReq_miss_latency::.cpu.data  12329346942                       # number of WriteReq miss cycles
system.cpu.dcache.WriteReq_miss_latency::total  12329346942                       # number of WriteReq miss cycles
system.cpu.dcache.WriteReq_accesses::.cpu.data      8523284                       # number of WriteReq accesses(hits+misses)
system.cpu.dcache.WriteReq_accesses::total      8523284                       # number of WriteReq accesses(hits+misses)
system.cpu.dcache.WriteReq_miss_rate::.cpu.data     0.019692                       # miss rate for WriteReq accesses
system.cpu.dcache.WriteReq_miss_rate::total     0.019692                       # miss rate for WriteReq accesses
system.cpu.dcache.WriteReq_avg_miss_latency::.cpu.data 73458.930779                       # average WriteReq miss latency
system.cpu.dcache.WriteReq_avg_miss_latency::total 73458.930779                       # average WriteReq miss latency
system.cpu.dcache.WriteReq_mshr_hits::.cpu.data           11                       # number of WriteReq MSHR hits
system.cpu.dcache.WriteReq_mshr_hits::total           11                       # number of WriteReq MSHR hits
system.cpu.dcache.WriteReq_mshr_misses::.cpu.data       167829                       # number of WriteReq MSHR misses
system.cpu.dcache.WriteReq_mshr_misses::total       167829                       # number of WriteReq MSHR misses
system.cpu.dcache.WriteReq_mshr_miss_latency::.cpu.data  12160994442                       # number of WriteReq MSHR miss cycles
system.cpu.dcache.WriteReq_mshr_miss_latency::total  12160994442                       # number of WriteReq MSHR miss cycles
system.cpu.dcache.WriteReq_mshr_miss_rate::.cpu.data     0.019691                       # mshr miss rate for WriteReq accesses
system.cpu.dcache.WriteReq_mshr_miss_rate::total     0.019691                       # mshr miss rate for WriteReq accesses
system.cpu.dcache.WriteReq_avg_mshr_miss_latency::.cpu.data 72460.626245                       # average WriteReq mshr miss latency
system.cpu.dcache.WriteReq_avg_mshr_miss_latency::total 72460.626245                       # average WriteReq mshr miss latency
system.cpu.dcache.SoftPFReq_hits::.cpu.data      1336399                       # number of SoftPFReq hits
system.cpu.dcache.SoftPFReq_hits::total       1336399                       # number of SoftPFReq hits
system.cpu.dcache.SoftPFReq_misses::.cpu.data       154101                       # number of SoftPFReq misses
system.cpu.dcache.SoftPFReq_misses::total       154101                       # number of SoftPFReq misses
system.cpu.dcache.SoftPFReq_accesses::.cpu.data      1490500                       # number of SoftPFReq accesses(hits+misses)
system.cpu.dcache.SoftPFReq_accesses::total      1490500                       # number of SoftPFReq accesses(hits+misses)
system.cpu.dcache.SoftPFReq_miss_rate::.cpu.data     0.103389                       # miss rate for SoftPFReq accesses
system.cpu.dcache.SoftPFReq_miss_rate::total     0.103389                       # miss rate for SoftPFReq accesses
system.cpu.dcache.SoftPFReq_mshr_misses::.cpu.data        56907                       # number of SoftPFReq MSHR misses
system.cpu.dcache.SoftPFReq_mshr_misses::total        56907                       # number of SoftPFReq MSHR misses
system.cpu.dcache.SoftPFReq_mshr_miss_latency::.cpu.data   4265696500                       # number of SoftPFReq MSHR miss cycles
system.cpu.dcache.SoftPFReq_mshr_miss_latency::total   4265696500                       # number of SoftPFReq MSHR miss cycles
system.cpu.dcache.SoftPFReq_mshr_miss_rate::.cpu.data     0.038180                       # mshr miss rate for SoftPFReq accesses
system.cpu.dcache.SoftPFReq_mshr_miss_rate::total     0.038180                       # mshr miss rate for SoftPFReq accesses
system.cpu.dcache.SoftPFReq_avg_mshr_miss_latency::.cpu.data 74959.082362                       # average SoftPFReq mshr miss latency
system.cpu.dcache.SoftPFReq_avg_mshr_miss_latency::total 74959.082362                       # average SoftPFReq mshr miss latency
system.cpu.dcache.power_state.pwrStateResidencyTicks::UNDEFINED  51524791000                       # Cumulative time (in ticks) in various power states
system.cpu.dcache.tags.tagsinuse           511.690632                       # Cycle average of tags in use
system.cpu.dcache.tags.total_refs            44246990                       # Total number of references to valid blocks.
system.cpu.dcache.tags.sampled_refs            422462                       # Sample count of references to valid blocks.
system.cpu.dcache.tags.avg_refs            104.736024                       # Average number of references to valid blocks.
system.cpu.dcache.tags.warmup_cycle            163000                       # Cycle when the warmup percentage was hit.
system.cpu.dcache.tags.occ_blocks::.cpu.data   511.690632                       # Average occupied blocks per requestor
system.cpu.dcache.tags.occ_percent::.cpu.data     0.999396                       # Average percentage of cache occupancy
system.cpu.dcache.tags.occ_percent::total     0.999396                       # Average percentage of cache occupancy
system.cpu.dcache.tags.occ_task_id_blocks::1024          512                       # Occupied blocks per task id
system.cpu.dcache.tags.age_task_id_blocks_1024::0           57                       # Occupied blocks per task id
system.cpu.dcache.tags.age_task_id_blocks_1024::1          355                       # Occupied blocks per task id
system.cpu.dcache.tags.age_task_id_blocks_1024::2           93                       # Occupied blocks per task id
system.cpu.dcache.tags.age_task_id_blocks_1024::3            7                       # Occupied blocks per task id
system.cpu.dcache.tags.occ_task_id_percent::1024            1                       # Percentage of cache occupancy per task id
system.cpu.dcache.tags.tag_accesses          89436722                       # Number of tag accesses
system.cpu.dcache.tags.data_accesses         89436722                       # Number of data accesses
system.cpu.dcache.tags.power_state.pwrStateResidencyTicks::UNDEFINED  51524791000                       # Cumulative time (in ticks) in various power states
system.cpu.decode.idleCycles                  7705142                       # Number of cycles decode is idle
system.cpu.decode.blockedCycles              69205989                       # Number of cycles decode is blocked
system.cpu.decode.runCycles                  10960056                       # Number of cycles decode is running
system.cpu.decode.unblockCycles              14685242                       # Number of cycles decode is unblocking
system.cpu.decode.squashCycles                 298790                       # Number of cycles decode is squashing
system.cpu.decode.branchResolved              3078416                       # Number of times decode resolved a  branch
system.cpu.decode.branchMispred                  1893                       # Number of times decode detected a branch misprediction
system.cpu.decode.decodedInsts              198594240                       # Number of instructions handled by decode
system.cpu.decode.squashedInsts                  9189                       # Number of squashed instructions handled by decode
system.cpu.dtb.rdAccesses                    37976923                       # TLB accesses on read requests
system.cpu.dtb.wrAccesses                    16875261                       # TLB accesses on write requests
system.cpu.dtb.rdMisses                          5627                       # TLB misses on read requests
system.cpu.dtb.wrMisses                        188423                       # TLB misses on write requests
system.cpu.dtb.walker.power_state.pwrStateResidencyTicks::UNDEFINED  51524791000                       # Cumulative time (in ticks) in various power states
system.cpu.dtb_walker_cache.blocked_cycles::no_mshrs            0                       # number of cycles access was blocked
system.cpu.dtb_walker_cache.blocked_cycles::no_targets            0                       # number of cycles access was blocked
system.cpu.dtb_walker_cache.blocked::no_mshrs            0                       # number of cycles access was blocked
system.cpu.dtb_walker_cache.blocked::no_targets            0                       # number of cycles access was blocked
system.cpu.dtb_walker_cache.avg_blocked_cycles::no_mshrs          nan                       # average number of cycles each access was blocked
system.cpu.dtb_walker_cache.avg_blocked_cycles::no_targets          nan                       # average number of cycles each access was blocked
system.cpu.dtb_walker_cache.replacements            0                       # number of replacements
system.cpu.dtb_walker_cache.power_state.pwrStateResidencyTicks::UNDEFINED  51524791000                       # Cumulative time (in ticks) in various power states
system.cpu.dtb_walker_cache.tags.tagsinuse            0                       # Cycle average of tags in use
system.cpu.dtb_walker_cache.tags.total_refs            0                       # Total number of references to valid blocks.
system.cpu.dtb_walker_cache.tags.sampled_refs            0                       # Sample count of references to valid blocks.
system.cpu.dtb_walker_cache.tags.avg_refs          nan                       # Average number of references to valid blocks.
system.cpu.dtb_walker_cache.tags.warmup_cycle            0                       # Cycle when the warmup percentage was hit.
system.cpu.dtb_walker_cache.tags.tag_accesses            0                       # Number of tag accesses
system.cpu.dtb_walker_cache.tags.data_accesses            0                       # Number of data accesses
system.cpu.dtb_walker_cache.tags.power_state.pwrStateResidencyTicks::UNDEFINED  51524791000                       # Cumulative time (in ticks) in various power states
system.cpu.fetch.icacheStallCycles           12943704                       # Number of cycles fetch is stalled on an Icache miss
system.cpu.fetch.insts                      118056505                       # Number of instructions fetch has processed
system.cpu.fetch.branches                     6501298                       # Number of branches that fetch encountered
system.cpu.fetch.predictedBranches            4601637                       # Number of branches that fetch has predicted taken
system.cpu.fetch.cycles                      89603694                       # Number of cycles fetch has run and was not squashing or blocked
system.cpu.fetch.squashCycles                  601274                       # Number of cycles fetch has spent squashing
system.cpu.fetch.miscStallCycles                  890                       # Number of cycles fetch has spent waiting on interrupts,or bad addresses, or out of MSHRs
system.cpu.fetch.pendingTrapStallCycles          6274                       # Number of stall cycles due to pending traps
system.cpu.fetch.pendingQuiesceStallCycles            9                       # Number of stall cycles due to pending quiesce instructions
system.cpu.fetch.icacheWaitRetryStallCycles           11                       # Number of stall cycles due to full MSHR
system.cpu.fetch.cacheLines                  12657652                       # Number of cache lines fetched
system.cpu.fetch.icacheSquashes                  9796                       # Number of outstanding Icache misses that were squashed
system.cpu.fetch.nisnDist::samples          102855219                       # Number of instructions fetched each cycle (Total)
system.cpu.fetch.nisnDist::mean              2.032121                       # Number of instructions fetched each cycle (Total)
system.cpu.fetch.nisnDist::stdev             3.203097                       # Number of instructions fetched each cycle (Total)
system.cpu.fetch.nisnDist::underflows               0      0.00%      0.00% # Number of instructions fetched each cycle (Total)
system.cpu.fetch.nisnDist::0                 68259921     66.37%     66.37% # Number of instructions fetched each cycle (Total)
system.cpu.fetch.nisnDist::1                  2007704      1.95%     68.32% # Number of instructions fetched each cycle (Total)
system.cpu.fetch.nisnDist::2                  3576231      3.48%     71.79% # Number of instructions fetched each cycle (Total)
system.cpu.fetch.nisnDist::3                  2549624      2.48%     74.27% # Number of instructions fetched each cycle (Total)
system.cpu.fetch.nisnDist::4                  2029606      1.97%     76.25% # Number of instructions fetched each cycle (Total)
system.cpu.fetch.nisnDist::5                  2074101      2.02%     78.26% # Number of instructions fetched each cycle (Total)
system.cpu.fetch.nisnDist::6                  1369950      1.33%     79.59% # Number of instructions fetched each cycle (Total)
system.cpu.fetch.nisnDist::7                  2408111      2.34%     81.94% # Number of instructions fetched each cycle (Total)
system.cpu.fetch.nisnDist::8                 18579971     18.06%    100.00% # Number of instructions fetched each cycle (Total)
system.cpu.fetch.nisnDist::overflows                0      0.00%    100.00% # Number of instructions fetched each cycle (Total)
system.cpu.fetch.nisnDist::min_value                0                       # Number of instructions fetched each cycle (Total)
system.cpu.fetch.nisnDist::max_value                8                       # Number of instructions fetched each cycle (Total)
system.cpu.fetch.nisnDist::total            102855219                       # Number of instructions fetched each cycle (Total)
system.cpu.fetch.branchRate                  0.063089                       # Number of branch fetches per cycle
system.cpu.fetch.rate                        1.145628                       # Number of inst fetches per cycle
system.cpu.icache.demand_hits::.cpu.inst     12652880                       # number of demand (read+write) hits
system.cpu.icache.demand_hits::total         12652880                       # number of demand (read+write) hits
system.cpu.icache.overall_hits::.cpu.inst     12652880                       # number of overall hits
system.cpu.icache.overall_hits::total        12652880                       # number of overall hits
system.cpu.icache.demand_misses::.cpu.inst         4772                       # number of demand (read+write) misses
system.cpu.icache.demand_misses::total           4772                       # number of demand (read+write) misses
system.cpu.icache.overall_misses::.cpu.inst         4772                       # number of overall misses
system.cpu.icache.overall_misses::total          4772                       # number of overall misses
system.cpu.icache.demand_miss_latency::.cpu.inst    278061000                       # number of demand (read+write) miss cycles
system.cpu.icache.demand_miss_latency::total    278061000                       # number of demand (read+write) miss cycles
system.cpu.icache.overall_miss_latency::.cpu.inst    278061000                       # number of overall miss cycles
system.cpu.icache.overall_miss_latency::total    278061000                       # number of overall miss cycles
system.cpu.icache.demand_accesses::.cpu.inst     12657652                       # number of demand (read+write) accesses
system.cpu.icache.demand_accesses::total     12657652                       # number of demand (read+write) accesses
system.cpu.icache.overall_accesses::.cpu.inst     12657652                       # number of overall (read+write) accesses
system.cpu.icache.overall_accesses::total     12657652                       # number of overall (read+write) accesses
system.cpu.icache.demand_miss_rate::.cpu.inst     0.000377                       # miss rate for demand accesses
system.cpu.icache.demand_miss_rate::total     0.000377                       # miss rate for demand accesses
system.cpu.icache.overall_miss_rate::.cpu.inst     0.000377                       # miss rate for overall accesses
system.cpu.icache.overall_miss_rate::total     0.000377                       # miss rate for overall accesses
system.cpu.icache.demand_avg_miss_latency::.cpu.inst 58269.279128                       # average overall miss latency
system.cpu.icache.demand_avg_miss_latency::total 58269.279128                       # average overall miss latency
system.cpu.icache.overall_avg_miss_latency::.cpu.inst 58269.279128                       # average overall miss latency
system.cpu.icache.overall_avg_miss_latency::total 58269.279128                       # average overall miss latency
system.cpu.icache.blocked_cycles::no_mshrs          752                       # number of cycles access was blocked
system.cpu.icache.blocked_cycles::no_targets            0                       # number of cycles access was blocked
system.cpu.icache.blocked::no_mshrs                13                       # number of cycles access was blocked
system.cpu.icache.blocked::no_targets               0                       # number of cycles access was blocked
system.cpu.icache.avg_blocked_cycles::no_mshrs    57.846154                       # average number of cycles each access was blocked
system.cpu.icache.avg_blocked_cycles::no_targets          nan                       # average number of cycles each access was blocked
system.cpu.icache.writebacks::.writebacks         3343                       # number of writebacks
system.cpu.icache.writebacks::total              3343                       # number of writebacks
system.cpu.icache.demand_mshr_hits::.cpu.inst          915                       # number of demand (read+write) MSHR hits
system.cpu.icache.demand_mshr_hits::total          915                       # number of demand (read+write) MSHR hits
system.cpu.icache.overall_mshr_hits::.cpu.inst          915                       # number of overall MSHR hits
system.cpu.icache.overall_mshr_hits::total          915                       # number of overall MSHR hits
system.cpu.icache.demand_mshr_misses::.cpu.inst         3857                       # number of demand (read+write) MSHR misses
system.cpu.icache.demand_mshr_misses::total         3857                       # number of demand (read+write) MSHR misses
system.cpu.icache.overall_mshr_misses::.cpu.inst         3857                       # number of overall MSHR misses
system.cpu.icache.overall_mshr_misses::total         3857                       # number of overall MSHR misses
system.cpu.icache.demand_mshr_miss_latency::.cpu.inst    227447000                       # number of demand (read+write) MSHR miss cycles
system.cpu.icache.demand_mshr_miss_latency::total    227447000                       # number of demand (read+write) MSHR miss cycles
system.cpu.icache.overall_mshr_miss_latency::.cpu.inst    227447000                       # number of overall MSHR miss cycles
system.cpu.icache.overall_mshr_miss_latency::total    227447000                       # number of overall MSHR miss cycles
system.cpu.icache.demand_mshr_miss_rate::.cpu.inst     0.000305                       # mshr miss rate for demand accesses
system.cpu.icache.demand_mshr_miss_rate::total     0.000305                       # mshr miss rate for demand accesses
system.cpu.icache.overall_mshr_miss_rate::.cpu.inst     0.000305                       # mshr miss rate for overall accesses
system.cpu.icache.overall_mshr_miss_rate::total     0.000305                       # mshr miss rate for overall accesses
system.cpu.icache.demand_avg_mshr_miss_latency::.cpu.inst 58969.924812                       # average overall mshr miss latency
system.cpu.icache.demand_avg_mshr_miss_latency::total 58969.924812                       # average overall mshr miss latency
system.cpu.icache.overall_avg_mshr_miss_latency::.cpu.inst 58969.924812                       # average overall mshr miss latency
system.cpu.icache.overall_avg_mshr_miss_latency::total 58969.924812                       # average overall mshr miss latency
system.cpu.icache.replacements                   3343                       # number of replacements
system.cpu.icache.ReadReq_hits::.cpu.inst     12652880                       # number of ReadReq hits
system.cpu.icache.ReadReq_hits::total        12652880                       # number of ReadReq hits
system.cpu.icache.ReadReq_misses::.cpu.inst         4772                       # number of ReadReq misses
system.cpu.icache.ReadReq_misses::total          4772                       # number of ReadReq misses
system.cpu.icache.ReadReq_miss_latency::.cpu.inst    278061000                       # number of ReadReq miss cycles
system.cpu.icache.ReadReq_miss_latency::total    278061000                       # number of ReadReq miss cycles
system.cpu.icache.ReadReq_accesses::.cpu.inst     12657652                       # number of ReadReq accesses(hits+misses)
system.cpu.icache.ReadReq_accesses::total     12657652                       # number of ReadReq accesses(hits+misses)
system.cpu.icache.ReadReq_miss_rate::.cpu.inst     0.000377                       # miss rate for ReadReq accesses
system.cpu.icache.ReadReq_miss_rate::total     0.000377                       # miss rate for ReadReq accesses
system.cpu.icache.ReadReq_avg_miss_latency::.cpu.inst 58269.279128                       # average ReadReq miss latency
system.cpu.icache.ReadReq_avg_miss_latency::total 58269.279128                       # average ReadReq miss latency
system.cpu.icache.ReadReq_mshr_hits::.cpu.inst          915                       # number of ReadReq MSHR hits
system.cpu.icache.ReadReq_mshr_hits::total          915                       # number of ReadReq MSHR hits
system.cpu.icache.ReadReq_mshr_misses::.cpu.inst         3857                       # number of ReadReq MSHR misses
system.cpu.icache.ReadReq_mshr_misses::total         3857                       # number of ReadReq MSHR misses
system.cpu.icache.ReadReq_mshr_miss_latency::.cpu.inst    227447000                       # number of ReadReq MSHR miss cycles
system.cpu.icache.ReadReq_mshr_miss_latency::total    227447000                       # number of ReadReq MSHR miss cycles
system.cpu.icache.ReadReq_mshr_miss_rate::.cpu.inst     0.000305                       # mshr miss rate for ReadReq accesses
system.cpu.icache.ReadReq_mshr_miss_rate::total     0.000305                       # mshr miss rate for ReadReq accesses
system.cpu.icache.ReadReq_avg_mshr_miss_latency::.cpu.inst 58969.924812                       # average ReadReq mshr miss latency
system.cpu.icache.ReadReq_avg_mshr_miss_latency::total 58969.924812                       # average ReadReq mshr miss latency
system.cpu.icache.power_state.pwrStateResidencyTicks::UNDEFINED  51524791000                       # Cumulative time (in ticks) in various power states
system.cpu.icache.tags.tagsinuse           511.368881                       # Cycle average of tags in use
system.cpu.icache.tags.total_refs            12656737                       # Total number of references to valid blocks.
system.cpu.icache.tags.sampled_refs              3857                       # Sample count of references to valid blocks.
system.cpu.icache.tags.avg_refs           3281.497796                       # Average number of references to valid blocks.
system.cpu.icache.tags.warmup_cycle             79500                       # Cycle when the warmup percentage was hit.
system.cpu.icache.tags.occ_blocks::.cpu.inst   511.368881                       # Average occupied blocks per requestor
system.cpu.icache.tags.occ_percent::.cpu.inst     0.998767                       # Average percentage of cache occupancy
system.cpu.icache.tags.occ_percent::total     0.998767                       # Average percentage of cache occupancy
system.cpu.icache.tags.occ_task_id_blocks::1024          512                       # Occupied blocks per task id
system.cpu.icache.tags.age_task_id_blocks_1024::3           13                       # Occupied blocks per task id
system.cpu.icache.tags.age_task_id_blocks_1024::4          499                       # Occupied blocks per task id
system.cpu.icache.tags.occ_task_id_percent::1024            1                       # Percentage of cache occupancy per task id
system.cpu.icache.tags.tag_accesses          25319161                       # Number of tag accesses
system.cpu.icache.tags.data_accesses         25319161                       # Number of data accesses
system.cpu.icache.tags.power_state.pwrStateResidencyTicks::UNDEFINED  51524791000                       # Cumulative time (in ticks) in various power states
system.cpu.interrupts.clk_domain.clock           8000                       # Clock period in ticks
system.cpu.itb.rdAccesses                           0                       # TLB accesses on read requests
system.cpu.itb.wrAccesses                    12658625                       # TLB accesses on write requests
system.cpu.itb.rdMisses                             0                       # TLB misses on read requests
system.cpu.itb.wrMisses                          1242                       # TLB misses on write requests
system.cpu.itb.walker.power_state.pwrStateResidencyTicks::UNDEFINED  51524791000                       # Cumulative time (in ticks) in various power states
system.cpu.itb_walker_cache.blocked_cycles::no_mshrs            0                       # number of cycles access was blocked
system.cpu.itb_walker_cache.blocked_cycles::no_targets            0                       # number of cycles access was blocked
system.cpu.itb_walker_cache.blocked::no_mshrs            0                       # number of cycles access was blocked
system.cpu.itb_walker_cache.blocked::no_targets            0                       # number of cycles access was blocked
system.cpu.itb_walker_cache.avg_blocked_cycles::no_mshrs          nan                       # average number of cycles each access was blocked
system.cpu.itb_walker_cache.avg_blocked_cycles::no_targets          nan                       # average number of cycles each access was blocked
system.cpu.itb_walker_cache.replacements            0                       # number of replacements
system.cpu.itb_walker_cache.power_state.pwrStateResidencyTicks::UNDEFINED  51524791000                       # Cumulative time (in ticks) in various power states
system.cpu.itb_walker_cache.tags.tagsinuse            0                       # Cycle average of tags in use
system.cpu.itb_walker_cache.tags.total_refs            0                       # Total number of references to valid blocks.
system.cpu.itb_walker_cache.tags.sampled_refs            0                       # Sample count of references to valid blocks.
system.cpu.itb_walker_cache.tags.avg_refs          nan                       # Average number of references to valid blocks.
system.cpu.itb_walker_cache.tags.warmup_cycle            0                       # Cycle when the warmup percentage was hit.
system.cpu.itb_walker_cache.tags.tag_accesses            0                       # Number of tag accesses
system.cpu.itb_walker_cache.tags.data_accesses            0                       # Number of data accesses
system.cpu.itb_walker_cache.tags.power_state.pwrStateResidencyTicks::UNDEFINED  51524791000                       # Cumulative time (in ticks) in various power states
system.cpu.lsq0.forwLoads                     1982909                       # Number of loads that had data forwarded from stores
system.cpu.lsq0.squashedLoads                 7328715                       # Number of loads squashed
system.cpu.lsq0.ignoredResponses                  134                       # Number of memory responses ignored because the instruction is squashed
system.cpu.lsq0.memOrderViolation                 605                       # Number of memory ordering violations
system.cpu.lsq0.squashedStores                8996184                       # Number of stores squashed
system.cpu.lsq0.rescheduledLoads                 9421                       # Number of loads that were rescheduled
system.cpu.lsq0.blockedByCache                   7933                       # Number of times an access to memory failed due to the cache being blocked
system.cpu.power_state.pwrStateResidencyTicks::ON  51524791000                       # Cumulative time (in ticks) in various power states
system.cpu.rename.squashCycles                 298790                       # Number of cycles rename is squashing
system.cpu.rename.idleCycles                 12425442                       # Number of cycles rename is idle
system.cpu.rename.blockCycles                25555130                       # Number of cycles rename is blocking
system.cpu.rename.serializeStallCycles           3110                       # count of cycles rename stalledfor serializing inst
system.cpu.rename.runCycles                  20698879                       # Number of cycles rename is running
system.cpu.rename.unblockCycles              43873868                       # Number of cycles rename is unblocking
system.cpu.rename.renamedInsts              196675993                       # Number of instructions processed by rename
system.cpu.rename.ROBFullEvents                 13029                       # Number of times rename has blocked due to ROB full
system.cpu.rename.IQFullEvents               22036865                       # Number of times rename has blocked due to IQ full
system.cpu.rename.LQFullEvents                1532675                       # Number of times rename has blocked due to LQ full
system.cpu.rename.SQFullEvents               17177362                       # Number of times rename has blocked due to SQ full
system.cpu.rename.renamedOperands           249354186                       # Number of destination operands rename has renamed
system.cpu.rename.lookups                   479055766                       # Number of register rename lookups that rename has made
system.cpu.rename.intLookups                324542495                       # Number of integer rename lookups
system.cpu.rename.fpLookups                  48489610                       # Number of floating rename lookups
system.cpu.rename.committedMaps             225115857                       # Number of HB maps that are committed
system.cpu.rename.undoneMaps                 24238197                       # Number of HB maps that are undone due to squashing
system.cpu.rename.serializing                      44                       # count of serializing insts renamed
system.cpu.rename.tempSerializing                  25                       # count of temporary serializing insts renamed
system.cpu.rename.skidInsts                  66684615                       # count of insts added to the skid buffer
system.cpu.rob.reads                        277076780                       # The number of ROB reads
system.cpu.rob.writes                       384379612                       # The number of ROB writes
system.cpu.thread_0.numInsts                100000001                       # Number of Instructions committed
system.cpu.thread_0.numOps                  166019455                       # Number of Ops committed
system.cpu.thread_0.numMemRefs                      0                       # Number of Memory References
system.cpu_clk_domain.clock                       500                       # Clock period in ticks
system.cpu_voltage_domain.voltage                   1                       # Voltage in Volts
system.l2.demand_hits::.cpu.inst                  934                       # number of demand (read+write) hits
system.l2.demand_hits::.cpu.data                37646                       # number of demand (read+write) hits
system.l2.demand_hits::total                    38580                       # number of demand (read+write) hits
system.l2.overall_hits::.cpu.inst                 934                       # number of overall hits
system.l2.overall_hits::.cpu.data               37646                       # number of overall hits
system.l2.overall_hits::total                   38580                       # number of overall hits
system.l2.demand_misses::.cpu.inst               2920                       # number of demand (read+write) misses
system.l2.demand_misses::.cpu.data             384817                       # number of demand (read+write) misses
system.l2.demand_misses::total                 387737                       # number of demand (read+write) misses
system.l2.overall_misses::.cpu.inst              2920                       # number of overall misses
system.l2.overall_misses::.cpu.data            384817                       # number of overall misses
system.l2.overall_misses::total                387737                       # number of overall misses
system.l2.demand_miss_latency::.cpu.inst    211588000                       # number of demand (read+write) miss cycles
system.l2.demand_miss_latency::.cpu.data  27426319000                       # number of demand (read+write) miss cycles
system.l2.demand_miss_latency::total      27637907000                       # number of demand (read+write) miss cycles
system.l2.overall_miss_latency::.cpu.inst    211588000                       # number of overall miss cycles
system.l2.overall_miss_latency::.cpu.data  27426319000                       # number of overall miss cycles
system.l2.overall_miss_latency::total     27637907000                       # number of overall miss cycles
system.l2.demand_accesses::.cpu.inst             3854                       # number of demand (read+write) accesses
[...]
system.mem_ctrls.dram.writeBursts              165732                       # Number of DRAM write bursts
system.mem_ctrls.dram.perBankRdBursts::0        24372                       # Per bank write bursts
system.mem_ctrls.dram.perBankRdBursts::1        24834                       # Per bank write bursts
system.mem_ctrls.dram.perBankRdBursts::2        24573                       # Per bank write bursts
system.mem_ctrls.dram.perBankRdBursts::3        24717                       # Per bank write bursts
system.mem_ctrls.dram.perBankRdBursts::4        24131                       # Per bank write bursts
system.mem_ctrls.dram.perBankRdBursts::5        24146                       # Per bank write bursts
system.mem_ctrls.dram.perBankRdBursts::6        23845                       # Per bank write bursts
system.mem_ctrls.dram.perBankRdBursts::7        24133                       # Per bank write bursts
system.mem_ctrls.dram.perBankRdBursts::8        23978                       # Per bank write bursts
system.mem_ctrls.dram.perBankRdBursts::9        23889                       # Per bank write bursts
system.mem_ctrls.dram.perBankRdBursts::10        23891                       # Per bank write bursts
system.mem_ctrls.dram.perBankRdBursts::11        24076                       # Per bank write bursts
system.mem_ctrls.dram.perBankRdBursts::12        23992                       # Per bank write bursts
system.mem_ctrls.dram.perBankRdBursts::13        24230                       # Per bank write bursts
system.mem_ctrls.dram.perBankRdBursts::14        24600                       # Per bank write bursts
system.mem_ctrls.dram.perBankRdBursts::15        24321                       # Per bank write bursts
system.mem_ctrls.dram.perBankWrBursts::0        10216                       # Per bank write bursts
system.mem_ctrls.dram.perBankWrBursts::1        10510                       # Per bank write bursts
system.mem_ctrls.dram.perBankWrBursts::2        10224                       # Per bank write bursts
system.mem_ctrls.dram.perBankWrBursts::3        10257                       # Per bank write bursts
system.mem_ctrls.dram.perBankWrBursts::4        10133                       # Per bank write bursts
system.mem_ctrls.dram.perBankWrBursts::5        10307                       # Per bank write bursts
system.mem_ctrls.dram.perBankWrBursts::6        10271                       # Per bank write bursts
system.mem_ctrls.dram.perBankWrBursts::7        10428                       # Per bank write bursts
system.mem_ctrls.dram.perBankWrBursts::8        10319                       # Per bank write bursts
system.mem_ctrls.dram.perBankWrBursts::9        10232                       # Per bank write bursts
system.mem_ctrls.dram.perBankWrBursts::10        10327                       # Per bank write bursts
system.mem_ctrls.dram.perBankWrBursts::11        10415                       # Per bank write bursts
system.mem_ctrls.dram.perBankWrBursts::12        10417                       # Per bank write bursts
system.mem_ctrls.dram.perBankWrBursts::13        10670                       # Per bank write bursts
system.mem_ctrls.dram.perBankWrBursts::14        10663                       # Per bank write bursts
system.mem_ctrls.dram.perBankWrBursts::15        10343                       # Per bank write bursts
system.mem_ctrls.dram.totQLat              3608718000                       # Total ticks spent queuing
system.mem_ctrls.dram.totBusLat            1938640000                       # Total ticks spent in databus transfers
system.mem_ctrls.dram.totMemAccLat        10878618000                       # Total ticks spent from burst creation until serviced by the DRAM
system.mem_ctrls.dram.avgQLat                 9307.34                       # Average queueing delay per DRAM burst
system.mem_ctrls.dram.avgBusLat               5000.00                       # Average bus latency per DRAM burst
system.mem_ctrls.dram.avgMemAccLat           28057.34                       # Average memory access latency per DRAM burst
system.mem_ctrls.dram.readRowHits              326506                       # Number of row buffer hits during reads
system.mem_ctrls.dram.writeRowHits             138940                       # Number of row buffer hits during writes
system.mem_ctrls.dram.readRowHitRate            84.21                       # Row buffer hit rate for reads
system.mem_ctrls.dram.writeRowHitRate           83.83                       # Row buffer hit rate for writes
system.mem_ctrls.dram.bytesPerActivate::samples        88009                       # Bytes accessed per row activation
system.mem_ctrls.dram.bytesPerActivate::mean   402.458476                       # Bytes accessed per row activation
system.mem_ctrls.dram.bytesPerActivate::gmean   252.260495                       # Bytes accessed per row activation
system.mem_ctrls.dram.bytesPerActivate::stdev   348.577669                       # Bytes accessed per row activation
system.mem_ctrls.dram.bytesPerActivate::0-127        22723     25.82%     25.82% # Bytes accessed per row activation
system.mem_ctrls.dram.bytesPerActivate::128-255        17440     19.82%     45.64% # Bytes accessed per row activation
system.mem_ctrls.dram.bytesPerActivate::256-383         9068     10.30%     55.94% # Bytes accessed per row activation
system.mem_ctrls.dram.bytesPerActivate::384-511         9040     10.27%     66.21% # Bytes accessed per row activation
system.mem_ctrls.dram.bytesPerActivate::512-639         5316      6.04%     72.25% # Bytes accessed per row activation
system.mem_ctrls.dram.bytesPerActivate::640-767         3674      4.17%     76.43% # Bytes accessed per row activation
system.mem_ctrls.dram.bytesPerActivate::768-895         4872      5.54%     81.96% # Bytes accessed per row activation
system.mem_ctrls.dram.bytesPerActivate::896-1023         3725      4.23%     86.19% # Bytes accessed per row activation
system.mem_ctrls.dram.bytesPerActivate::1024-1151        12151     13.81%    100.00% # Bytes accessed per row activation
system.mem_ctrls.dram.bytesPerActivate::total        88009                       # Bytes accessed per row activation
system.mem_ctrls.dram.bytesRead              24814592                       # Total number of bytes read from DRAM
system.mem_ctrls.dram.bytesWritten           10606848                       # Total number of bytes written to DRAM
system.mem_ctrls.dram.avgRdBW              481.604904                       # Average DRAM read bandwidth in MiBytes/s
system.mem_ctrls.dram.avgWrBW              205.859117                       # Average DRAM write bandwidth in MiBytes/s
system.mem_ctrls.dram.peakBW                 12800.00                       # Theoretical peak bandwidth in MiByte/s
system.mem_ctrls.dram.busUtil                    5.37                       # Data bus utilization in percentage
system.mem_ctrls.dram.busUtilRead                3.76                       # Data bus utilization in percentage for reads
system.mem_ctrls.dram.busUtilWrite               1.61                       # Data bus utilization in percentage for writes
system.mem_ctrls.dram.pageHitRate               84.10                       # Row buffer hit rate, read and write combined
system.mem_ctrls.dram.power_state.pwrStateResidencyTicks::UNDEFINED  51524791000                       # Cumulative time (in ticks) in various power states
system.mem_ctrls.dram.rank0.actEnergy       312910500                       # Energy for activate commands per rank (pJ)
system.mem_ctrls.dram.rank0.preEnergy       166304490                       # Energy for precharge commands per rank (pJ)
system.mem_ctrls.dram.rank0.readEnergy     1390522140                       # Energy for read commands per rank (pJ)
system.mem_ctrls.dram.rank0.writeEnergy     429846120                       # Energy for write commands per rank (pJ)
system.mem_ctrls.dram.rank0.refreshEnergy 4067072880.000000                       # Energy for refresh commands per rank (pJ)
system.mem_ctrls.dram.rank0.actBackEnergy  19198923540                       # Energy for active background per rank (pJ)
system.mem_ctrls.dram.rank0.preBackEnergy   3618005280                       # Energy for precharge background per rank (pJ)
system.mem_ctrls.dram.rank0.actPowerDownEnergy            0                       # Energy for active power-down per rank (pJ)
system.mem_ctrls.dram.rank0.prePowerDownEnergy            0                       # Energy for precharge power-down per rank (pJ)
system.mem_ctrls.dram.rank0.selfRefreshEnergy            0                       # Energy for self refresh per rank (pJ)
system.mem_ctrls.dram.rank0.totalEnergy   29183584950                       # Total energy per rank (pJ)
system.mem_ctrls.dram.rank0.averagePower   566.398900                       # Core power per rank (mW)
system.mem_ctrls.dram.rank0.totalIdleTime            0                       # Total Idle time Per DRAM Rank
system.mem_ctrls.dram.rank0.pwrStateTime::IDLE   9162702500                       # Time in different power states
system.mem_ctrls.dram.rank0.pwrStateTime::REF   1720420000                       # Time in different power states
system.mem_ctrls.dram.rank0.pwrStateTime::SREF            0                       # Time in different power states
system.mem_ctrls.dram.rank0.pwrStateTime::PRE_PDN            0                       # Time in different power states
system.mem_ctrls.dram.rank0.pwrStateTime::ACT  40641668500                       # Time in different power states
system.mem_ctrls.dram.rank0.pwrStateTime::ACT_PDN            0                       # Time in different power states
system.mem_ctrls.dram.rank1.actEnergy       315509460                       # Energy for activate commands per rank (pJ)
system.mem_ctrls.dram.rank1.preEnergy       167689665                       # Energy for precharge commands per rank (pJ)
system.mem_ctrls.dram.rank1.readEnergy     1377855780                       # Energy for read commands per rank (pJ)
system.mem_ctrls.dram.rank1.writeEnergy     435274920                       # Energy for write commands per rank (pJ)
system.mem_ctrls.dram.rank1.refreshEnergy 4067072880.000000                       # Energy for refresh commands per rank (pJ)
system.mem_ctrls.dram.rank1.actBackEnergy  19025623020                       # Energy for active background per rank (pJ)
system.mem_ctrls.dram.rank1.preBackEnergy   3763942560                       # Energy for precharge background per rank (pJ)
system.mem_ctrls.dram.rank1.actPowerDownEnergy            0                       # Energy for active power-down per rank (pJ)
system.mem_ctrls.dram.rank1.prePowerDownEnergy            0                       # Energy for precharge power-down per rank (pJ)
system.mem_ctrls.dram.rank1.selfRefreshEnergy            0                       # Energy for self refresh per rank (pJ)
system.mem_ctrls.dram.rank1.totalEnergy   29152968285                       # Total energy per rank (pJ)
system.mem_ctrls.dram.rank1.averagePower   565.804688                       # Core power per rank (mW)
system.mem_ctrls.dram.rank1.totalIdleTime            0                       # Total Idle time Per DRAM Rank
system.mem_ctrls.dram.rank1.pwrStateTime::IDLE   9537487750                       # Time in different power states
system.mem_ctrls.dram.rank1.pwrStateTime::REF   1720420000                       # Time in different power states
system.mem_ctrls.dram.rank1.pwrStateTime::SREF            0                       # Time in different power states
system.mem_ctrls.dram.rank1.pwrStateTime::PRE_PDN            0                       # Time in different power states
system.mem_ctrls.dram.rank1.pwrStateTime::ACT  40266883250                       # Time in different power states
system.mem_ctrls.dram.rank1.pwrStateTime::ACT_PDN            0                       # Time in different power states
system.mem_ctrls.power_state.pwrStateResidencyTicks::UNDEFINED  51524791000                       # Cumulative time (in ticks) in various power states
system.membus.trans_dist::ReadResp             222033                       # Transaction distribution
system.membus.trans_dist::WritebackDirty       165755                       # Transaction distribution
system.membus.trans_dist::CleanEvict           213268                       # Transaction distribution
system.membus.trans_dist::UpgradeReq                1                       # Transaction distribution
system.membus.trans_dist::ReadExReq            165703                       # Transaction distribution
system.membus.trans_dist::ReadExResp           165703                       # Transaction distribution
system.membus.trans_dist::ReadSharedReq        222033                       # Transaction distribution
system.membus.pkt_count_system.l2.mem_side_port::system.mem_ctrls.port      1154496                       # Packet count per connected requestor and responder (bytes)
system.membus.pkt_count_system.l2.mem_side_port::total      1154496                       # Packet count per connected requestor and responder (bytes)
system.membus.pkt_count::total                1154496                       # Packet count per connected requestor and responder (bytes)
system.membus.pkt_size_system.l2.mem_side_port::system.mem_ctrls.port     35423424                       # Cumulative packet size per connected requestor and responder (bytes)
system.membus.pkt_size_system.l2.mem_side_port::total     35423424                       # Cumulative packet size per connected requestor and responder (bytes)
system.membus.pkt_size::total                35423424                       # Cumulative packet size per connected requestor and responder (bytes)
system.membus.snoops                                0                       # Total snoops (count)
system.membus.snoopTraffic                          0                       # Total snoop traffic (bytes)
system.membus.snoop_fanout::samples            387737                       # Request fanout histogram
system.membus.snoop_fanout::mean                    0                       # Request fanout histogram
system.membus.snoop_fanout::stdev                   0                       # Request fanout histogram
system.membus.snoop_fanout::underflows              0      0.00%      0.00% # Request fanout histogram
system.membus.snoop_fanout::0                  387737    100.00%    100.00% # Request fanout histogram
system.membus.snoop_fanout::1                       0      0.00%    100.00% # Request fanout histogram
system.membus.snoop_fanout::overflows               0      0.00%    100.00% # Request fanout histogram
system.membus.snoop_fanout::min_value               0                       # Request fanout histogram
system.membus.snoop_fanout::max_value               0                       # Request fanout histogram
system.membus.snoop_fanout::total              387737                       # Request fanout histogram
system.membus.power_state.pwrStateResidencyTicks::UNDEFINED  51524791000                       # Cumulative time (in ticks) in various power states
system.membus.reqLayer2.occupancy           357445000                       # Layer occupancy (ticks)
system.membus.reqLayer2.utilization               0.7                       # Layer utilization (%)
system.membus.respLayer1.occupancy          484670000                       # Layer occupancy (ticks)
system.membus.respLayer1.utilization              0.9                       # Layer utilization (%)
system.tol2bus.trans_dist::ReadResp            258490                       # Transaction distribution
system.tol2bus.trans_dist::WritebackDirty       338142                       # Transaction distribution
system.tol2bus.trans_dist::WritebackClean         3343                       # Transaction distribution
system.tol2bus.trans_dist::CleanEvict          464041                       # Transaction distribution
system.tol2bus.trans_dist::UpgradeReq               1                       # Transaction distribution
system.tol2bus.trans_dist::UpgradeResp              1                       # Transaction distribution
system.tol2bus.trans_dist::ReadExReq           167829                       # Transaction distribution
system.tol2bus.trans_dist::ReadExResp          167829                       # Transaction distribution
system.tol2bus.trans_dist::ReadCleanReq          3857                       # Transaction distribution
system.tol2bus.trans_dist::ReadSharedReq       254634                       # Transaction distribution
system.tol2bus.pkt_count_system.cpu.icache.mem_side_port::system.l2.cpu_side_port        11054                       # Packet count per connected requestor and responder (bytes)
system.tol2bus.pkt_count_system.cpu.dcache.mem_side_port::system.l2.cpu_side_port      1266877                       # Packet count per connected requestor and responder (bytes)
system.tol2bus.pkt_count::total               1277931                       # Packet count per connected requestor and responder (bytes)
system.tol2bus.pkt_size_system.cpu.icache.mem_side_port::system.l2.cpu_side_port       460608                       # Cumulative packet size per connected requestor and responder (bytes)
system.tol2bus.pkt_size_system.cpu.dcache.mem_side_port::system.l2.cpu_side_port     38070336                       # Cumulative packet size per connected requestor and responder (bytes)
system.tol2bus.pkt_size::total               38530944                       # Cumulative packet size per connected requestor and responder (bytes)
system.tol2bus.snoops                          380236                       # Total snoops (count)
system.tol2bus.snoopTraffic                  10608512                       # Total snoop traffic (bytes)
system.tol2bus.snoop_fanout::samples           806554                       # Request fanout histogram
system.tol2bus.snoop_fanout::mean            0.001575                       # Request fanout histogram
system.tol2bus.snoop_fanout::stdev           0.039650                       # Request fanout histogram
system.tol2bus.snoop_fanout::underflows             0      0.00%      0.00% # Request fanout histogram
system.tol2bus.snoop_fanout::0                 805284     99.84%     99.84% # Request fanout histogram
system.tol2bus.snoop_fanout::1                   1270      0.16%    100.00% # Request fanout histogram
system.tol2bus.snoop_fanout::2                      0      0.00%    100.00% # Request fanout histogram
system.tol2bus.snoop_fanout::3                      0      0.00%    100.00% # Request fanout histogram
system.tol2bus.snoop_fanout::4                      0      0.00%    100.00% # Request fanout histogram
system.tol2bus.snoop_fanout::overflows              0      0.00%    100.00% # Request fanout histogram
system.tol2bus.snoop_fanout::min_value              0                       # Request fanout histogram
system.tol2bus.snoop_fanout::max_value              1                       # Request fanout histogram
system.tol2bus.snoop_fanout::total             806554                       # Request fanout histogram
system.tol2bus.power_state.pwrStateResidencyTicks::UNDEFINED  51524791000                       # Cumulative time (in ticks) in various power states
system.tol2bus.reqLayer0.occupancy          601537000                       # Layer occupancy (ticks)
system.tol2bus.reqLayer0.utilization              1.2                       # Layer utilization (%)
system.tol2bus.respLayer0.occupancy           5787496                       # Layer occupancy (ticks)
system.tol2bus.respLayer0.utilization             0.0                       # Layer utilization (%)
system.tol2bus.respLayer1.occupancy         633693500                       # Layer occupancy (ticks)
system.tol2bus.respLayer1.utilization             1.2                       # Layer utilization (%)
system.voltage_domain.voltage                       1                       # Voltage in Volts

---------- End Simulation Statistics   ----------
