
---------- Begin Simulation Statistics ----------
final_tick                                  157199000                       # Number of ticks from beginning of simulation (restored from checkpoints and never reset)
host_inst_rate                                  89626                       # Simulator instruction rate (inst/s)
host_mem_usage                                2219508                       # Number of bytes of host memory used
host_op_rate                                   178854                       # Simulator op (including micro ops) rate (op/s)
host_seconds                                     1.37                       # Real time elapsed on the host
host_tick_rate                               92165982                       # Simulator tick rate (ticks/s)
sim_freq                                 1000000000000                       # Frequency of simulated ticks
sim_insts                                      122622                       # Number of instructions simulated
sim_ops                                        244750                       # Number of ops (including micro ops) simulated
sim_seconds                                  0.000126                       # Number of seconds simulated
sim_ticks                                   126128000                       # Number of ticks simulated
system.cpu.cc_regfile_reads                     82011                       # number of cc regfile reads
system.cpu.cc_regfile_writes                    65646                       # number of cc regfile writes
system.cpu.committedInsts                      114713                       # Number of Instructions Simulated
system.cpu.committedOps                        229429                       # Number of Ops (including micro ops) Simulated
system.cpu.cpi                               1.099509                       # CPI: Cycles Per Instruction
system.cpu.cpi_total                         1.099509                       # CPI: Total CPI of All Threads
system.cpu.fp_regfile_reads                    114789                       # number of floating regfile reads
system.cpu.fp_regfile_writes                    98401                       # number of floating regfile writes
system.cpu.iew.branchMispredicts                   18                       # Number of branch mispredicts detected at execute
system.cpu.iew.exec_branches                    16412                       # Number of branches executed
system.cpu.iew.exec_nop                             0                       # number of nop insts executed
system.cpu.iew.exec_rate                     1.821887                       # Inst execution rate
system.cpu.iew.exec_refs                        49217                       # number of memory reference insts executed
system.cpu.iew.exec_stores                      16397                       # Number of stores executed
system.cpu.iew.exec_swp                             0                       # number of swp insts executed
system.cpu.iew.iewBlockCycles                    3457                       # Number of cycles IEW is blocking
system.cpu.iew.iewDispLoadInsts                 32838                       # Number of dispatched load instructions
system.cpu.iew.iewDispNonSpecInsts                  9                       # Number of dispatched non-speculative instructions
system.cpu.iew.iewDispSquashedInsts                 0                       # Number of squashed instructions skipped by dispatch
system.cpu.iew.iewDispStoreInsts                16430                       # Number of dispatched store instructions
system.cpu.iew.iewDispatchedInsts              230010                       # Number of instructions dispatched to IQ
system.cpu.iew.iewExecLoadInsts                 32820                       # Number of load instructions executed
system.cpu.iew.iewExecSquashedInsts                37                       # Number of squashed instructions skipped in execute
system.cpu.iew.iewExecutedInsts                229791                       # Number of executed instructions
system.cpu.iew.iewIQFullEvents                     42                       # Number of times the IQ has become full, causing a stall
system.cpu.iew.iewIdleCycles                        0                       # Number of cycles IEW is idle
system.cpu.iew.iewLSQFullEvents                     0                       # Number of times the LSQ has become full, causing a stall
system.cpu.iew.iewSquashCycles                     18                       # Number of cycles IEW is squashing
system.cpu.iew.iewUnblockCycles                    53                       # Number of cycles IEW is unblocking
system.cpu.iew.memOrderViolationEvents              4                       # Number of memory order violations
system.cpu.iew.predictedNotTakenIncorrect           12                       # Number of branches that were predicted not taken incorrectly
system.cpu.iew.predictedTakenIncorrect              6                       # Number of branches that were predicted taken incorrectly
system.cpu.iew.wb_consumers                    189583                       # num instructions consuming a value
system.cpu.iew.wb_count                        229771                       # cumulative count of insts written-back
system.cpu.iew.wb_fanout                     0.754071                       # average fanout of values written-back
system.cpu.iew.wb_producers                    142959                       # num instructions producing a value
system.cpu.iew.wb_rate                       1.821729                       # insts written-back per cycle
system.cpu.iew.wb_sent                         229772                       # cumulative count of insts sent to commit
system.cpu.int_regfile_reads                   196978                       # number of integer regfile reads
system.cpu.int_regfile_writes                   98551                       # number of integer regfile writes
system.cpu.ipc                               0.909497                       # IPC: Instructions Per Cycle
system.cpu.ipc_total                         0.909497                       # IPC: Total IPC of All Threads
system.cpu.iq.FU_type_0::No_OpClass                10      0.00%      0.00% # Type of FU issued
system.cpu.iq.FU_type_0::IntAlu                114982     50.03%     50.03% # Type of FU issued
system.cpu.iq.FU_type_0::IntMult                    0      0.00%     50.03% # Type of FU issued
system.cpu.iq.FU_type_0::IntDiv                     0      0.00%     50.03% # Type of FU issued
system.cpu.iq.FU_type_0::FloatAdd               32806     14.27%     64.31% # Type of FU issued
system.cpu.iq.FU_type_0::FloatCmp                   0      0.00%     64.31% # Type of FU issued
system.cpu.iq.FU_type_0::FloatCvt                   0      0.00%     64.31% # Type of FU issued
system.cpu.iq.FU_type_0::FloatMult                  0      0.00%     64.31% # Type of FU issued
system.cpu.iq.FU_type_0::FloatMultAcc               0      0.00%     64.31% # Type of FU issued
system.cpu.iq.FU_type_0::FloatDiv                   0      0.00%     64.31% # Type of FU issued
system.cpu.iq.FU_type_0::FloatMisc                  0      0.00%     64.31% # Type of FU issued
system.cpu.iq.FU_type_0::FloatSqrt                  0      0.00%     64.31% # Type of FU issued
system.cpu.iq.FU_type_0::SimdAdd                    0      0.00%     64.31% # Type of FU issued
system.cpu.iq.FU_type_0::SimdAddAcc                 0      0.00%     64.31% # Type of FU issued
system.cpu.iq.FU_type_0::SimdAlu                   10      0.00%     64.31% # Type of FU issued
system.cpu.iq.FU_type_0::SimdCmp                    0      0.00%     64.31% # Type of FU issued
system.cpu.iq.FU_type_0::SimdCvt                    0      0.00%     64.31% # Type of FU issued
system.cpu.iq.FU_type_0::SimdMisc                   2      0.00%     64.31% # Type of FU issued
system.cpu.iq.FU_type_0::SimdMult                   0      0.00%     64.31% # Type of FU issued
system.cpu.iq.FU_type_0::SimdMultAcc                0      0.00%     64.31% # Type of FU issued
system.cpu.iq.FU_type_0::SimdShift                  0      0.00%     64.31% # Type of FU issued
system.cpu.iq.FU_type_0::SimdShiftAcc               0      0.00%     64.31% # Type of FU issued
system.cpu.iq.FU_type_0::SimdDiv                    0      0.00%     64.31% # Type of FU issued
system.cpu.iq.FU_type_0::SimdSqrt                   0      0.00%     64.31% # Type of FU issued
system.cpu.iq.FU_type_0::SimdFloatAdd           16396      7.13%     71.45% # Type of FU issued
system.cpu.iq.FU_type_0::SimdFloatAlu               0      0.00%     71.45% # Type of FU issued
system.cpu.iq.FU_type_0::SimdFloatCmp               0      0.00%     71.45% # Type of FU issued
system.cpu.iq.FU_type_0::SimdFloatCvt               2      0.00%     71.45% # Type of FU issued
system.cpu.iq.FU_type_0::SimdFloatDiv               0      0.00%     71.45% # Type of FU issued
system.cpu.iq.FU_type_0::SimdFloatMisc              0      0.00%     71.45% # Type of FU issued
system.cpu.iq.FU_type_0::SimdFloatMult          16392      7.13%     78.58% # Type of FU issued
system.cpu.iq.FU_type_0::SimdFloatMultAcc            0      0.00%     78.58% # Type of FU issued
system.cpu.iq.FU_type_0::SimdFloatSqrt              0      0.00%     78.58% # Type of FU issued
system.cpu.iq.FU_type_0::SimdReduceAdd              0      0.00%     78.58% # Type of FU issued
system.cpu.iq.FU_type_0::SimdReduceAlu              0      0.00%     78.58% # Type of FU issued
system.cpu.iq.FU_type_0::SimdReduceCmp              0      0.00%     78.58% # Type of FU issued
system.cpu.iq.FU_type_0::SimdFloatReduceAdd            0      0.00%     78.58% # Type of FU issued
system.cpu.iq.FU_type_0::SimdFloatReduceCmp            0      0.00%     78.58% # Type of FU issued
system.cpu.iq.FU_type_0::SimdAes                    0      0.00%     78.58% # Type of FU issued
system.cpu.iq.FU_type_0::SimdAesMix                 0      0.00%     78.58% # Type of FU issued
system.cpu.iq.FU_type_0::SimdSha1Hash               0      0.00%     78.58% # Type of FU issued
system.cpu.iq.FU_type_0::SimdSha1Hash2              0      0.00%     78.58% # Type of FU issued
system.cpu.iq.FU_type_0::SimdSha256Hash             0      0.00%     78.58% # Type of FU issued
system.cpu.iq.FU_type_0::SimdSha256Hash2            0      0.00%     78.58% # Type of FU issued
system.cpu.iq.FU_type_0::SimdShaSigma2              0      0.00%     78.58% # Type of FU issued
system.cpu.iq.FU_type_0::SimdShaSigma3              0      0.00%     78.58% # Type of FU issued
system.cpu.iq.FU_type_0::SimdPredAlu                0      0.00%     78.58% # Type of FU issued
system.cpu.iq.FU_type_0::MemRead                   15      0.01%     78.59% # Type of FU issued
system.cpu.iq.FU_type_0::MemWrite                  10      0.00%     78.59% # Type of FU issued
system.cpu.iq.FU_type_0::FloatMemRead           32809     14.28%     92.87% # Type of FU issued
system.cpu.iq.FU_type_0::FloatMemWrite          16392      7.13%    100.00% # Type of FU issued
system.cpu.iq.FU_type_0::IprAccess                  0      0.00%    100.00% # Type of FU issued
system.cpu.iq.FU_type_0::InstPrefetch               0      0.00%    100.00% # Type of FU issued
system.cpu.iq.FU_type_0::total                 229826                       # Type of FU issued
system.cpu.iq.fp_alu_accesses                  114819                       # Number of floating point alu accesses
system.cpu.iq.fp_inst_queue_reads              229642                       # Number of floating instruction queue reads
system.cpu.iq.fp_inst_queue_wakeup_accesses       114788                       # Number of floating instruction queue wakeup accesses
system.cpu.iq.fp_inst_queue_writes             115158                       # Number of floating instruction queue writes
system.cpu.iq.fu_busy_cnt                           0                       # FU busy when requested
system.cpu.iq.fu_busy_rate                          0                       # FU busy rate (busy events/executed inst)
system.cpu.iq.fu_full::No_OpClass                   0                       # attempts to use FU when none available
system.cpu.iq.fu_full::IntAlu                       0                       # attempts to use FU when none available
system.cpu.iq.fu_full::IntMult                      0                       # attempts to use FU when none available
system.cpu.iq.fu_full::IntDiv                       0                       # attempts to use FU when none available
system.cpu.iq.fu_full::FloatAdd                     0                       # attempts to use FU when none available
system.cpu.iq.fu_full::FloatCmp                     0                       # attempts to use FU when none available
system.cpu.iq.fu_full::FloatCvt                     0                       # attempts to use FU when none available
system.cpu.iq.fu_full::FloatMult                    0                       # attempts to use FU when none available
system.cpu.iq.fu_full::FloatMultAcc                 0                       # attempts to use FU when none available
system.cpu.iq.fu_full::FloatDiv                     0                       # attempts to use FU when none available
system.cpu.iq.fu_full::FloatMisc                    0                       # attempts to use FU when none available
system.cpu.iq.fu_full::FloatSqrt                    0                       # attempts to use FU when none available
system.cpu.iq.fu_full::SimdAdd                      0                       # attempts to use FU when none available
system.cpu.iq.fu_full::SimdAddAcc                   0                       # attempts to use FU when none available
system.cpu.iq.fu_full::SimdAlu                      0                       # attempts to use FU when none available
system.cpu.iq.fu_full::SimdCmp                      0                       # attempts to use FU when none available
system.cpu.iq.fu_full::SimdCvt                      0                       # attempts to use FU when none available
system.cpu.iq.fu_full::SimdMisc                     0                       # attempts to use FU when none available
system.cpu.iq.fu_full::SimdMult                     0                       # attempts to use FU when none available
system.cpu.iq.fu_full::SimdMultAcc                  0                       # attempts to use FU when none available
system.cpu.iq.fu_full::SimdShift                    0                       # attempts to use FU when none available
system.cpu.iq.fu_full::SimdShiftAcc                 0                       # attempts to use FU when none available
system.cpu.iq.fu_full::SimdDiv                      0                       # attempts to use FU when none available
system.cpu.iq.fu_full::SimdSqrt                     0                       # attempts to use FU when none available
system.cpu.iq.fu_full::SimdFloatAdd                 0                       # attempts to use FU when none available
system.cpu.iq.fu_full::SimdFloatAlu                 0                       # attempts to use FU when none available
system.cpu.iq.fu_full::SimdFloatCmp                 0                       # attempts to use FU when none available
system.cpu.iq.fu_full::SimdFloatCvt                 0                       # attempts to use FU when none available
system.cpu.iq.fu_full::SimdFloatDiv                 0                       # attempts to use FU when none available
system.cpu.iq.fu_full::SimdFloatMisc                0                       # attempts to use FU when none available
system.cpu.iq.fu_full::SimdFloatMult                0                       # attempts to use FU when none available
system.cpu.iq.fu_full::SimdFloatMultAcc             0                       # attempts to use FU when none available
system.cpu.iq.fu_full::SimdFloatSqrt                0                       # attempts to use FU when none available
system.cpu.iq.fu_full::SimdReduceAdd                0                       # attempts to use FU when none available
system.cpu.iq.fu_full::SimdReduceAlu                0                       # attempts to use FU when none available
system.cpu.iq.fu_full::SimdReduceCmp                0                       # attempts to use FU when none available
system.cpu.iq.fu_full::SimdFloatReduceAdd            0                       # attempts to use FU when none available
system.cpu.iq.fu_full::SimdFloatReduceCmp            0                       # attempts to use FU when none available
system.cpu.iq.fu_full::SimdAes                      0                       # attempts to use FU when none available
system.cpu.iq.fu_full::SimdAesMix                   0                       # attempts to use FU when none available
system.cpu.iq.fu_full::SimdSha1Hash                 0                       # attempts to use FU when none available
system.cpu.iq.fu_full::SimdSha1Hash2                0                       # attempts to use FU when none available
system.cpu.iq.fu_full::SimdSha256Hash               0                       # attempts to use FU when none available
system.cpu.iq.fu_full::SimdSha256Hash2              0                       # attempts to use FU when none available
system.cpu.iq.fu_full::SimdShaSigma2                0                       # attempts to use FU when none available
system.cpu.iq.fu_full::SimdShaSigma3                0                       # attempts to use FU when none available
system.cpu.iq.fu_full::SimdPredAlu                  0                       # attempts to use FU when none available
system.cpu.iq.fu_full::MemRead                      0                       # attempts to use FU when none available
system.cpu.iq.fu_full::MemWrite                     0                       # attempts to use FU when none available
system.cpu.iq.fu_full::FloatMemRead                 0                       # attempts to use FU when none available
system.cpu.iq.fu_full::FloatMemWrite                0                       # attempts to use FU when none available
system.cpu.iq.fu_full::IprAccess                    0                       # attempts to use FU when none available
system.cpu.iq.fu_full::InstPrefetch                 0                       # attempts to use FU when none available
system.cpu.iq.int_alu_accesses                 114997                       # Number of integer alu accesses
system.cpu.iq.int_inst_queue_reads             356140                       # Number of integer instruction queue reads
system.cpu.iq.int_inst_queue_wakeup_accesses       114983                       # Number of integer instruction queue wakeup accesses
system.cpu.iq.int_inst_queue_writes            115410                       # Number of integer instruction queue writes
system.cpu.iq.iqInstsAdded                     230001                       # Number of instructions added to the IQ (excludes non-spec)
system.cpu.iq.iqInstsIssued                    229826                       # Number of instructions issued
system.cpu.iq.iqNonSpecInstsAdded                   9                       # Number of non-speculative instructions added to the IQ
system.cpu.iq.iqSquashedInstsExamined             554                       # Number of squashed instructions iterated over during squash; mainly for profiling
system.cpu.iq.iqSquashedNonSpecRemoved              8                       # Number of squashed non-spec instructions that were removed
system.cpu.iq.iqSquashedOperandsExamined          577                       # Number of squashed operands that are examined and possibly removed from graph
system.cpu.iq.issued_per_cycle::samples        126128                       # Number of insts issued each cycle
system.cpu.iq.issued_per_cycle::mean         1.822165                       # Number of insts issued each cycle
system.cpu.iq.issued_per_cycle::stdev        1.742552                       # Number of insts issued each cycle
system.cpu.iq.issued_per_cycle::underflows            0      0.00%      0.00% # Number of insts issued each cycle
system.cpu.iq.issued_per_cycle::0               41185     32.65%     32.65% # Number of insts issued each cycle
system.cpu.iq.issued_per_cycle::1               21488     17.04%     49.69% # Number of insts issued each cycle
system.cpu.iq.issued_per_cycle::2               20517     16.27%     65.96% # Number of insts issued each cycle
system.cpu.iq.issued_per_cycle::3               19938     15.81%     81.76% # Number of insts issued each cycle
system.cpu.iq.issued_per_cycle::4               12665     10.04%     91.81% # Number of insts issued each cycle
system.cpu.iq.issued_per_cycle::5                5694      4.51%     96.32% # Number of insts issued each cycle
system.cpu.iq.issued_per_cycle::6                4136      3.28%     99.60% # Number of insts issued each cycle
system.cpu.iq.issued_per_cycle::7                 496      0.39%     99.99% # Number of insts issued each cycle
system.cpu.iq.issued_per_cycle::8                   9      0.01%    100.00% # Number of insts issued each cycle
system.cpu.iq.issued_per_cycle::overflows            0      0.00%    100.00% # Number of insts issued each cycle
system.cpu.iq.issued_per_cycle::min_value            0                       # Number of insts issued each cycle
system.cpu.iq.issued_per_cycle::max_value            8                       # Number of insts issued each cycle
system.cpu.iq.issued_per_cycle::total          126128                       # Number of insts issued each cycle
system.cpu.iq.rate                           1.822165                       # Inst issue rate
system.cpu.iq.vec_alu_accesses                      0                       # Number of vector alu accesses
system.cpu.iq.vec_inst_queue_reads                  0                       # Number of vector instruction queue reads
system.cpu.iq.vec_inst_queue_wakeup_accesses            0                       # Number of vector instruction queue wakeup accesses
system.cpu.iq.vec_inst_queue_writes                 0                       # Number of vector instruction queue writes
system.cpu.memDep0.conflictingLoads             16391                       # Number of conflicting loads.
system.cpu.memDep0.conflictingStores            16388                       # Number of conflicting stores.
system.cpu.memDep0.insertedLoads                32838                       # Number of loads inserted to the mem dependence unit.
system.cpu.memDep0.insertedStores               16430                       # Number of stores inserted to the mem dependence unit.
system.cpu.misc_regfile_reads                   82058                       # number of misc regfile reads
system.cpu.numCycles                           126128                       # number of cpu cycles simulated
system.cpu.numWorkItemsCompleted                    0                       # number of work items this cpu completed
system.cpu.numWorkItemsStarted                      0                       # number of work items this cpu started
system.cpu.workload.numSyscalls                     0                       # Number of system calls
system.l1_to_l2.snoop_filter.hit_multi_requests            0                       # Number of requests hitting in the snoop filter with multiple (>1) holders of the requested data.
system.l1_to_l2.snoop_filter.hit_multi_snoops            0                       # Number of snoops hitting in the snoop filter with multiple (>1) holders of the requested data.
system.l1_to_l2.snoop_filter.hit_single_requests         1764                       # Number of requests hitting in the snoop filter with a single holder of the requested data.
system.l1_to_l2.snoop_filter.hit_single_snoops            0                       # Number of snoops hitting in the snoop filter with a single holder of the requested data.
system.l1_to_l2.snoop_filter.tot_requests         3823                       # Total number of requests made to the snoop filter.
system.l1_to_l2.snoop_filter.tot_snoops             0                       # Total number of snoops made to the snoop filter.
system.membus.snoop_filter.hit_multi_requests            0                       # Number of requests hitting in the snoop filter with multiple (>1) holders of the requested data.
system.membus.snoop_filter.hit_multi_snoops            0                       # Number of snoops hitting in the snoop filter with multiple (>1) holders of the requested data.
system.membus.snoop_filter.hit_single_requests            0                       # Number of requests hitting in the snoop filter with a single holder of the requested data.
system.membus.snoop_filter.hit_single_snoops            0                       # Number of snoops hitting in the snoop filter with a single holder of the requested data.
system.membus.snoop_filter.tot_requests          1028                       # Total number of requests made to the snoop filter.
system.membus.snoop_filter.tot_snoops               0                       # Total number of snoops made to the snoop filter.
system.clk_domain.clock                          1000                       # Clock period in ticks
system.clk_domain.voltage_domain.voltage            1                       # Voltage in Volts
system.cpu.branchPred.lookups                   16484                       # Number of BP lookups
system.cpu.branchPred.condPredicted             16441                       # Number of conditional branches predicted
system.cpu.branchPred.condIncorrect                15                       # Number of conditional branches incorrect
system.cpu.branchPred.BTBLookups                16440                       # Number of BTB lookups
system.cpu.branchPred.BTBHits                   16440                       # Number of BTB hits
system.cpu.branchPred.BTBHitPct            100.000000                       # BTB Hit Percentage
system.cpu.branchPred.RASUsed                      21                       # Number of times the RAS was used to get a target.
system.cpu.branchPred.RASIncorrect                  0                       # Number of incorrect RAS predictions.
system.cpu.branchPred.indirectLookups               0                       # Number of indirect predictor lookups.
system.cpu.branchPred.indirectHits                  0                       # Number of indirect target hits.
system.cpu.branchPred.indirectMisses                0                       # Number of indirect misses.
system.cpu.branchPred.indirectMispredicted            0                       # Number of mispredicted indirect branches.
system.cpu.branchPred.loop_predictor.correct        16382                       # Number of times the loop predictor is the provider and the prediction is correct
system.cpu.branchPred.loop_predictor.wrong            5                       # Number of times the loop predictor is the provider and the prediction is wrong
system.cpu.branchPred.tage.longestMatchProviderCorrect         8189                       # Number of times TAGE Longest Match is the provider and the prediction is correct
system.cpu.branchPred.tage.altMatchProviderCorrect            0                       # Number of times TAGE Alt Match is the provider and the prediction is correct
system.cpu.branchPred.tage.bimodalAltMatchProviderCorrect            0                       # Number of times TAGE Alt Match is the bimodal and it is the provider and the prediction is correct
system.cpu.branchPred.tage.bimodalProviderCorrect         8190                       # Number of times there are no hits on the TAGE tables and the bimodal prediction is correct
system.cpu.branchPred.tage.longestMatchProviderWrong            3                       # Number of times TAGE Longest Match is the provider and the prediction is wrong
system.cpu.branchPred.tage.altMatchProviderWrong            0                       # Number of times TAGE Alt Match is the provider and the prediction is wrong
system.cpu.branchPred.tage.bimodalAltMatchProviderWrong            0                       # Number of times TAGE Alt Match is the bimodal and it is the provider and the prediction is wrong
system.cpu.branchPred.tage.bimodalProviderWrong            5                       # Number of times there are no hits on the TAGE tables and the bimodal prediction is wrong
system.cpu.branchPred.tage.altMatchProviderWouldHaveHit            2                       # Number of times TAGE Longest Match is the provider, the prediction is wrong and Alt Match prediction was correct
system.cpu.branchPred.tage.longestMatchProviderWouldHaveHit            0                       # Number of times TAGE Alt Match is the provider, the prediction is wrong and Longest Match prediction was correct
system.cpu.branchPred.tage.longestMatchProvider::0            0                       # TAGE provider for longest match
system.cpu.branchPred.tage.longestMatchProvider::1            0                       # TAGE provider for longest match
system.cpu.branchPred.tage.longestMatchProvider::2            0                       # TAGE provider for longest match
system.cpu.branchPred.tage.longestMatchProvider::3         8192                       # TAGE provider for longest match
system.cpu.branchPred.tage.longestMatchProvider::4            0                       # TAGE provider for longest match
system.cpu.branchPred.tage.longestMatchProvider::5            0                       # TAGE provider for longest match
system.cpu.branchPred.tage.longestMatchProvider::6            0                       # TAGE provider for longest match
system.cpu.branchPred.tage.longestMatchProvider::7            0                       # TAGE provider for longest match
system.cpu.branchPred.tage.longestMatchProvider::8            0                       # TAGE provider for longest match
system.cpu.branchPred.tage.longestMatchProvider::9            0                       # TAGE provider for longest match
system.cpu.branchPred.tage.longestMatchProvider::10            0                       # TAGE provider for longest match
system.cpu.branchPred.tage.longestMatchProvider::11            0                       # TAGE provider for longest match
system.cpu.branchPred.tage.longestMatchProvider::12            0                       # TAGE provider for longest match
system.cpu.branchPred.tage.altMatchProvider::0         8192                       # TAGE provider for alt match
system.cpu.branchPred.tage.altMatchProvider::1            0                       # TAGE provider for alt match
system.cpu.branchPred.tage.altMatchProvider::2            0                       # TAGE provider for alt match
system.cpu.branchPred.tage.altMatchProvider::3            0                       # TAGE provider for alt match
system.cpu.branchPred.tage.altMatchProvider::4            0                       # TAGE provider for alt match
system.cpu.branchPred.tage.altMatchProvider::5            0                       # TAGE provider for alt match
system.cpu.branchPred.tage.altMatchProvider::6            0                       # TAGE provider for alt match
system.cpu.branchPred.tage.altMatchProvider::7            0                       # TAGE provider for alt match
system.cpu.branchPred.tage.altMatchProvider::8            0                       # TAGE provider for alt match
system.cpu.branchPred.tage.altMatchProvider::9            0                       # TAGE provider for alt match
system.cpu.branchPred.tage.altMatchProvider::10            0                       # TAGE provider for alt match
system.cpu.branchPred.tage.altMatchProvider::11            0                       # TAGE provider for alt match
system.cpu.branchPred.tage.altMatchProvider::12            0                       # TAGE provider for alt match
system.cpu.commit.commitSquashedInsts             554                       # The number of squashed insts skipped by commit
system.cpu.commit.commitNonSpecStalls               1                       # The number of times commit has been forced to stall to communicate backwards
system.cpu.commit.branchMispredicts                15                       # The number of times a branch was mispredicted
system.cpu.commit.numCommittedDist::samples       126038                       # Number of insts commited each cycle
system.cpu.commit.numCommittedDist::mean     1.820316                       # Number of insts commited each cycle
system.cpu.commit.numCommittedDist::stdev     2.510607                       # Number of insts commited each cycle
system.cpu.commit.numCommittedDist::underflows            0      0.00%      0.00% # Number of insts commited each cycle
system.cpu.commit.numCommittedDist::0           43630     34.62%     34.62% # Number of insts commited each cycle
system.cpu.commit.numCommittedDist::1           33771     26.79%     61.41% # Number of insts commited each cycle
system.cpu.commit.numCommittedDist::2           32232     25.57%     86.98% # Number of insts commited each cycle
system.cpu.commit.numCommittedDist::3               5      0.00%     86.99% # Number of insts commited each cycle
system.cpu.commit.numCommittedDist::4               1      0.00%     86.99% # Number of insts commited each cycle
system.cpu.commit.numCommittedDist::5               2      0.00%     86.99% # Number of insts commited each cycle
system.cpu.commit.numCommittedDist::6               5      0.00%     86.99% # Number of insts commited each cycle
system.cpu.commit.numCommittedDist::7               1      0.00%     87.00% # Number of insts commited each cycle
system.cpu.commit.numCommittedDist::8           16391     13.00%    100.00% # Number of insts commited each cycle
system.cpu.commit.numCommittedDist::overflows            0      0.00%    100.00% # Number of insts commited each cycle
system.cpu.commit.numCommittedDist::min_value            0                       # Number of insts commited each cycle
system.cpu.commit.numCommittedDist::max_value            8                       # Number of insts commited each cycle
system.cpu.commit.numCommittedDist::total       126038                       # Number of insts commited each cycle
system.cpu.commit.instsCommitted               114713                       # Number of instructions committed
system.cpu.commit.opsCommitted                 229429                       # Number of ops (including micro ops) committed
system.cpu.commit.memRefs                       49157                       # Number of memory references committed
system.cpu.commit.loads                         32772                       # Number of loads committed
system.cpu.commit.amos                              0                       # Number of atomic instructions committed
system.cpu.commit.membars                           0                       # Number of memory barriers committed
system.cpu.commit.branches                      16389                       # Number of branches committed
system.cpu.commit.vector                            0                       # Number of committed Vector instructions.
system.cpu.commit.floating                     114697                       # Number of committed floating point instructions.
system.cpu.commit.integer                      163883                       # Number of committed integer instructions.
system.cpu.commit.functionCalls                     1                       # Number of function calls committed.
system.cpu.commit.committedInstType_0::No_OpClass            4      0.00%      0.00% # Class of committed instruction
system.cpu.commit.committedInstType_0::IntAlu       114728     50.01%     50.01% # Class of committed instruction
system.cpu.commit.committedInstType_0::IntMult            0      0.00%     50.01% # Class of committed instruction
system.cpu.commit.committedInstType_0::IntDiv            0      0.00%     50.01% # Class of committed instruction
system.cpu.commit.committedInstType_0::FloatAdd        32770     14.28%     64.29% # Class of committed instruction
system.cpu.commit.committedInstType_0::FloatCmp            0      0.00%     64.29% # Class of committed instruction
system.cpu.commit.committedInstType_0::FloatCvt            0      0.00%     64.29% # Class of committed instruction
system.cpu.commit.committedInstType_0::FloatMult            0      0.00%     64.29% # Class of committed instruction
system.cpu.commit.committedInstType_0::FloatMultAcc            0      0.00%     64.29% # Class of committed instruction
system.cpu.commit.committedInstType_0::FloatDiv            0      0.00%     64.29% # Class of committed instruction
system.cpu.commit.committedInstType_0::FloatMisc            0      0.00%     64.29% # Class of committed instruction
system.cpu.commit.committedInstType_0::FloatSqrt            0      0.00%     64.29% # Class of committed instruction
system.cpu.commit.committedInstType_0::SimdAdd            0      0.00%     64.29% # Class of committed instruction
system.cpu.commit.committedInstType_0::SimdAddAcc            0      0.00%     64.29% # Class of committed instruction
system.cpu.commit.committedInstType_0::SimdAlu            0      0.00%     64.29% # Class of committed instruction
system.cpu.commit.committedInstType_0::SimdCmp            0      0.00%     64.29% # Class of committed instruction
system.cpu.commit.committedInstType_0::SimdCvt            0      0.00%     64.29% # Class of committed instruction
system.cpu.commit.committedInstType_0::SimdMisc            0      0.00%     64.29% # Class of committed instruction
system.cpu.commit.committedInstType_0::SimdMult            0      0.00%     64.29% # Class of committed instruction
system.cpu.commit.committedInstType_0::SimdMultAcc            0      0.00%     64.29% # Class of committed instruction
system.cpu.commit.committedInstType_0::SimdShift            0      0.00%     64.29% # Class of committed instruction
system.cpu.commit.committedInstType_0::SimdShiftAcc            0      0.00%     64.29% # Class of committed instruction
system.cpu.commit.committedInstType_0::SimdDiv            0      0.00%     64.29% # Class of committed instruction
system.cpu.commit.committedInstType_0::SimdSqrt            0      0.00%     64.29% # Class of committed instruction
system.cpu.commit.committedInstType_0::SimdFloatAdd        16386      7.14%     71.43% # Class of committed instruction
system.cpu.commit.committedInstType_0::SimdFloatAlu            0      0.00%     71.43% # Class of committed instruction
system.cpu.commit.committedInstType_0::SimdFloatCmp            0      0.00%     71.43% # Class of committed instruction
system.cpu.commit.committedInstType_0::SimdFloatCvt            0      0.00%     71.43% # Class of committed instruction
system.cpu.commit.committedInstType_0::SimdFloatDiv            0      0.00%     71.43% # Class of committed instruction
system.cpu.commit.committedInstType_0::SimdFloatMisc            0      0.00%     71.43% # Class of committed instruction
system.cpu.commit.committedInstType_0::SimdFloatMult        16384      7.14%     78.57% # Class of committed instruction
system.cpu.commit.committedInstType_0::SimdFloatMultAcc            0      0.00%     78.57% # Class of committed instruction
system.cpu.commit.committedInstType_0::SimdFloatSqrt            0      0.00%     78.57% # Class of committed instruction
system.cpu.commit.committedInstType_0::SimdReduceAdd            0      0.00%     78.57% # Class of committed instruction
system.cpu.commit.committedInstType_0::SimdReduceAlu            0      0.00%     78.57% # Class of committed instruction
system.cpu.commit.committedInstType_0::SimdReduceCmp            0      0.00%     78.57% # Class of committed instruction
system.cpu.commit.committedInstType_0::SimdFloatReduceAdd            0      0.00%     78.57% # Class of committed instruction
system.cpu.commit.committedInstType_0::SimdFloatReduceCmp            0      0.00%     78.57% # Class of committed instruction
system.cpu.commit.committedInstType_0::SimdAes            0      0.00%     78.57% # Class of committed instruction
system.cpu.commit.committedInstType_0::SimdAesMix            0      0.00%     78.57% # Class of committed instruction
system.cpu.commit.committedInstType_0::SimdSha1Hash            0      0.00%     78.57% # Class of committed instruction
system.cpu.commit.committedInstType_0::SimdSha1Hash2            0      0.00%     78.57% # Class of committed instruction
system.cpu.commit.committedInstType_0::SimdSha256Hash            0      0.00%     78.57% # Class of committed instruction
system.cpu.commit.committedInstType_0::SimdSha256Hash2            0      0.00%     78.57% # Class of committed instruction
system.cpu.commit.committedInstType_0::SimdShaSigma2            0      0.00%     78.57% # Class of committed instruction
system.cpu.commit.committedInstType_0::SimdShaSigma3            0      0.00%     78.57% # Class of committed instruction
system.cpu.commit.committedInstType_0::SimdPredAlu            0      0.00%     78.57% # Class of committed instruction
system.cpu.commit.committedInstType_0::MemRead            1      0.00%     78.57% # Class of committed instruction
system.cpu.commit.committedInstType_0::MemWrite            1      0.00%     78.58% # Class of committed instruction
system.cpu.commit.committedInstType_0::FloatMemRead        32771     14.28%     92.86% # Class of committed instruction
system.cpu.commit.committedInstType_0::FloatMemWrite        16384      7.14%    100.00% # Class of committed instruction
system.cpu.commit.committedInstType_0::IprAccess            0      0.00%    100.00% # Class of committed instruction
system.cpu.commit.committedInstType_0::InstPrefetch            0      0.00%    100.00% # Class of committed instruction
system.cpu.commit.committedInstType_0::total       229429                       # Class of committed instruction
system.cpu.commit.commitEligibleSamples         16391                       # number cycles where commit BW limit reached
system.cpu.decode.idleCycles                     9763                       # Number of cycles decode is idle
system.cpu.decode.blockedCycles                 87553                       # Number of cycles decode is blocked
system.cpu.decode.runCycles                      4699                       # Number of cycles decode is running
system.cpu.decode.unblockCycles                 24095                       # Number of cycles decode is unblocking
system.cpu.decode.squashCycles                     18                       # Number of cycles decode is squashing
system.cpu.decode.branchResolved                16414                       # Number of times decode resolved a  branch
system.cpu.decode.decodedInsts                 230266                       # Number of instructions handled by decode
system.cpu.dtb.rdAccesses                       33856                       # TLB accesses on read requests
system.cpu.dtb.wrAccesses                       16397                       # TLB accesses on write requests
system.cpu.dtb.rdMisses                            15                       # TLB misses on read requests
system.cpu.dtb.wrMisses                             0                       # TLB misses on write requests
system.cpu.dtb.walker.power_state.pwrStateResidencyTicks::UNDEFINED    157199000                       # Cumulative time (in ticks) in various power states
system.cpu.fetch.icacheStallCycles                 41                       # Number of cycles fetch is stalled on an Icache miss
system.cpu.fetch.insts                         115329                       # Number of instructions fetch has processed
system.cpu.fetch.branches                       16484                       # Number of branches that fetch encountered
system.cpu.fetch.predictedBranches              16461                       # Number of branches that fetch has predicted taken
system.cpu.fetch.cycles                        126069                       # Number of cycles fetch has run and was not squashing or blocked
system.cpu.fetch.squashCycles                      36                       # Number of cycles fetch has spent squashing
system.cpu.fetch.cacheLines                        74                       # Number of cache lines fetched
system.cpu.fetch.icacheSquashes                     5                       # Number of outstanding Icache misses that were squashed
system.cpu.fetch.nisnDist::samples             126128                       # Number of instructions fetched each cycle (Total)
system.cpu.fetch.nisnDist::mean              1.828817                       # Number of instructions fetched each cycle (Total)
system.cpu.fetch.nisnDist::stdev             2.979285                       # Number of instructions fetched each cycle (Total)
system.cpu.fetch.nisnDist::underflows               0      0.00%      0.00% # Number of instructions fetched each cycle (Total)
system.cpu.fetch.nisnDist::0                    86518     68.60%     68.60% # Number of instructions fetched each cycle (Total)
system.cpu.fetch.nisnDist::1                       11      0.01%     68.60% # Number of instructions fetched each cycle (Total)
system.cpu.fetch.nisnDist::2                     6653      5.27%     73.88% # Number of instructions fetched each cycle (Total)
system.cpu.fetch.nisnDist::3                        7      0.01%     73.88% # Number of instructions fetched each cycle (Total)
system.cpu.fetch.nisnDist::4                     6646      5.27%     79.15% # Number of instructions fetched each cycle (Total)
system.cpu.fetch.nisnDist::5                        4      0.00%     79.16% # Number of instructions fetched each cycle (Total)
system.cpu.fetch.nisnDist::6                     9791      7.76%     86.92% # Number of instructions fetched each cycle (Total)
system.cpu.fetch.nisnDist::7                        7      0.01%     86.93% # Number of instructions fetched each cycle (Total)
system.cpu.fetch.nisnDist::8                    16491     13.07%    100.00% # Number of instructions fetched each cycle (Total)
system.cpu.fetch.nisnDist::overflows                0      0.00%    100.00% # Number of instructions fetched each cycle (Total)
system.cpu.fetch.nisnDist::min_value                0                       # Number of instructions fetched each cycle (Total)
system.cpu.fetch.nisnDist::max_value                8                       # Number of instructions fetched each cycle (Total)
system.cpu.fetch.nisnDist::total               126128                       # Number of instructions fetched each cycle (Total)
system.cpu.fetch.branchRate                  0.130693                       # Number of branch fetches per cycle
system.cpu.fetch.rate                        0.914381                       # Number of inst fetches per cycle
system.cpu.interrupts.clk_domain.clock          16000                       # Clock period in ticks
system.cpu.itb.rdAccesses                           0                       # TLB accesses on read requests
system.cpu.itb.wrAccesses                          74                       # TLB accesses on write requests
system.cpu.itb.rdMisses                             0                       # TLB misses on read requests
system.cpu.itb.wrMisses                             0                       # TLB misses on write requests
system.cpu.itb.walker.power_state.pwrStateResidencyTicks::UNDEFINED    157199000                       # Cumulative time (in ticks) in various power states
system.cpu.l1d.demand_hits::.cpu.data           41941                       # number of demand (read+write) hits
system.cpu.l1d.demand_hits::total               41941                       # number of demand (read+write) hits
system.cpu.l1d.overall_hits::.cpu.data          41941                       # number of overall hits
system.cpu.l1d.overall_hits::total              41941                       # number of overall hits
system.cpu.l1d.demand_misses::.cpu.data          8294                       # number of demand (read+write) misses
system.cpu.l1d.demand_misses::total              8294                       # number of demand (read+write) misses
system.cpu.l1d.overall_misses::.cpu.data         8294                       # number of overall misses
system.cpu.l1d.overall_misses::total             8294                       # number of overall misses
system.cpu.l1d.demand_miss_latency::.cpu.data    311954000                       # number of demand (read+write) miss cycles
system.cpu.l1d.demand_miss_latency::total    311954000                       # number of demand (read+write) miss cycles
system.cpu.l1d.overall_miss_latency::.cpu.data    311954000                       # number of overall miss cycles
system.cpu.l1d.overall_miss_latency::total    311954000                       # number of overall miss cycles
system.cpu.l1d.demand_accesses::.cpu.data        50235                       # number of demand (read+write) accesses
system.cpu.l1d.demand_accesses::total           50235                       # number of demand (read+write) accesses
system.cpu.l1d.overall_accesses::.cpu.data        50235                       # number of overall (read+write) accesses
system.cpu.l1d.overall_accesses::total          50235                       # number of overall (read+write) accesses
system.cpu.l1d.demand_miss_rate::.cpu.data     0.165104                       # miss rate for demand accesses
system.cpu.l1d.demand_miss_rate::total       0.165104                       # miss rate for demand accesses
system.cpu.l1d.overall_miss_rate::.cpu.data     0.165104                       # miss rate for overall accesses
system.cpu.l1d.overall_miss_rate::total      0.165104                       # miss rate for overall accesses
system.cpu.l1d.demand_avg_miss_latency::.cpu.data 37612.008681                       # average overall miss latency
system.cpu.l1d.demand_avg_miss_latency::total 37612.008681                       # average overall miss latency
system.cpu.l1d.overall_avg_miss_latency::.cpu.data 37612.008681                       # average overall miss latency
system.cpu.l1d.overall_avg_miss_latency::total 37612.008681                       # average overall miss latency
system.cpu.l1d.blocked_cycles::no_mshrs             0                       # number of cycles access was blocked
system.cpu.l1d.blocked_cycles::no_targets            0                       # number of cycles access was blocked
system.cpu.l1d.blocked::no_mshrs                    0                       # number of cycles access was blocked
system.cpu.l1d.blocked::no_targets                  0                       # number of cycles access was blocked
system.cpu.l1d.avg_blocked_cycles::no_mshrs          nan                       # average number of cycles each access was blocked
system.cpu.l1d.avg_blocked_cycles::no_targets          nan                       # average number of cycles each access was blocked
system.cpu.l1d.writebacks::.writebacks            912                       # number of writebacks
system.cpu.l1d.writebacks::total                  912                       # number of writebacks
system.cpu.l1d.demand_mshr_hits::.cpu.data         6237                       # number of demand (read+write) MSHR hits
system.cpu.l1d.demand_mshr_hits::total           6237                       # number of demand (read+write) MSHR hits
system.cpu.l1d.overall_mshr_hits::.cpu.data         6237                       # number of overall MSHR hits
system.cpu.l1d.overall_mshr_hits::total          6237                       # number of overall MSHR hits
system.cpu.l1d.demand_mshr_misses::.cpu.data         2057                       # number of demand (read+write) MSHR misses
system.cpu.l1d.demand_mshr_misses::total         2057                       # number of demand (read+write) MSHR misses
system.cpu.l1d.overall_mshr_misses::.cpu.data         2057                       # number of overall MSHR misses
system.cpu.l1d.overall_mshr_misses::total         2057                       # number of overall MSHR misses
system.cpu.l1d.demand_mshr_miss_latency::.cpu.data     81784000                       # number of demand (read+write) MSHR miss cycles
system.cpu.l1d.demand_mshr_miss_latency::total     81784000                       # number of demand (read+write) MSHR miss cycles
system.cpu.l1d.overall_mshr_miss_latency::.cpu.data     81784000                       # number of overall MSHR miss cycles
system.cpu.l1d.overall_mshr_miss_latency::total     81784000                       # number of overall MSHR miss cycles
system.cpu.l1d.demand_mshr_miss_rate::.cpu.data     0.040948                       # mshr miss rate for demand accesses
system.cpu.l1d.demand_mshr_miss_rate::total     0.040948                       # mshr miss rate for demand accesses
system.cpu.l1d.overall_mshr_miss_rate::.cpu.data     0.040948                       # mshr miss rate for overall accesses
system.cpu.l1d.overall_mshr_miss_rate::total     0.040948                       # mshr miss rate for overall accesses
system.cpu.l1d.demand_avg_mshr_miss_latency::.cpu.data 39758.872144                       # average overall mshr miss latency
system.cpu.l1d.demand_avg_mshr_miss_latency::total 39758.872144                       # average overall mshr miss latency
system.cpu.l1d.overall_avg_mshr_miss_latency::.cpu.data 39758.872144                       # average overall mshr miss latency
system.cpu.l1d.overall_avg_mshr_miss_latency::total 39758.872144                       # average overall mshr miss latency
system.cpu.l1d.replacements                      1764                       # number of replacements
system.cpu.l1d.ReadReq_hits::.cpu.data          25556                       # number of ReadReq hits
system.cpu.l1d.ReadReq_hits::total              25556                       # number of ReadReq hits
system.cpu.l1d.ReadReq_misses::.cpu.data         8294                       # number of ReadReq misses
system.cpu.l1d.ReadReq_misses::total             8294                       # number of ReadReq misses
system.cpu.l1d.ReadReq_miss_latency::.cpu.data    311954000                       # number of ReadReq miss cycles
system.cpu.l1d.ReadReq_miss_latency::total    311954000                       # number of ReadReq miss cycles
system.cpu.l1d.ReadReq_accesses::.cpu.data        33850                       # number of ReadReq accesses(hits+misses)
system.cpu.l1d.ReadReq_accesses::total          33850                       # number of ReadReq accesses(hits+misses)
system.cpu.l1d.ReadReq_miss_rate::.cpu.data     0.245022                       # miss rate for ReadReq accesses
system.cpu.l1d.ReadReq_miss_rate::total      0.245022                       # miss rate for ReadReq accesses
system.cpu.l1d.ReadReq_avg_miss_latency::.cpu.data 37612.008681                       # average ReadReq miss latency
system.cpu.l1d.ReadReq_avg_miss_latency::total 37612.008681                       # average ReadReq miss latency
system.cpu.l1d.ReadReq_mshr_hits::.cpu.data         6237                       # number of ReadReq MSHR hits
system.cpu.l1d.ReadReq_mshr_hits::total          6237                       # number of ReadReq MSHR hits
system.cpu.l1d.ReadReq_mshr_misses::.cpu.data         2057                       # number of ReadReq MSHR misses
system.cpu.l1d.ReadReq_mshr_misses::total         2057                       # number of ReadReq MSHR misses
system.cpu.l1d.ReadReq_mshr_miss_latency::.cpu.data     81784000                       # number of ReadReq MSHR miss cycles
system.cpu.l1d.ReadReq_mshr_miss_latency::total     81784000                       # number of ReadReq MSHR miss cycles
system.cpu.l1d.ReadReq_mshr_miss_rate::.cpu.data     0.060768                       # mshr miss rate for ReadReq accesses
system.cpu.l1d.ReadReq_mshr_miss_rate::total     0.060768                       # mshr miss rate for ReadReq accesses
system.cpu.l1d.ReadReq_avg_mshr_miss_latency::.cpu.data 39758.872144                       # average ReadReq mshr miss latency
system.cpu.l1d.ReadReq_avg_mshr_miss_latency::total 39758.872144                       # average ReadReq mshr miss latency
system.cpu.l1d.WriteReq_hits::.cpu.data         16385                       # number of WriteReq hits
system.cpu.l1d.WriteReq_hits::total             16385                       # number of WriteReq hits
system.cpu.l1d.WriteReq_accesses::.cpu.data        16385                       # number of WriteReq accesses(hits+misses)
system.cpu.l1d.WriteReq_accesses::total         16385                       # number of WriteReq accesses(hits+misses)
system.cpu.l1d.power_state.pwrStateResidencyTicks::UNDEFINED    157199000                       # Cumulative time (in ticks) in various power states
system.cpu.l1d.tags.tagsinuse              484.183702                       # Cycle average of tags in use
system.cpu.l1d.tags.total_refs                  35700                       # Total number of references to valid blocks.
system.cpu.l1d.tags.sampled_refs                 1764                       # Sample count of references to valid blocks.
system.cpu.l1d.tags.avg_refs                20.238095                       # Average number of references to valid blocks.
system.cpu.l1d.tags.warmup_cycle                    0                       # Cycle when the warmup percentage was hit.
system.cpu.l1d.tags.occ_blocks::.cpu.data   484.183702                       # Average occupied blocks per requestor
system.cpu.l1d.tags.occ_percent::.cpu.data     0.945671                       # Average percentage of cache occupancy
system.cpu.l1d.tags.occ_percent::total       0.945671                       # Average percentage of cache occupancy
system.cpu.l1d.tags.occ_task_id_blocks::1024          512                       # Occupied blocks per task id
system.cpu.l1d.tags.age_task_id_blocks_1024::0          218                       # Occupied blocks per task id
system.cpu.l1d.tags.age_task_id_blocks_1024::1          294                       # Occupied blocks per task id
system.cpu.l1d.tags.occ_task_id_percent::1024            1                       # Percentage of cache occupancy per task id
system.cpu.l1d.tags.tag_accesses               403937                       # Number of tag accesses
system.cpu.l1d.tags.data_accesses              403937                       # Number of data accesses
system.cpu.l1d.tags.power_state.pwrStateResidencyTicks::UNDEFINED    157199000                       # Cumulative time (in ticks) in various power states
system.cpu.l1i.demand_hits::.cpu.inst              67                       # number of demand (read+write) hits
system.cpu.l1i.demand_hits::total                  67                       # number of demand (read+write) hits
system.cpu.l1i.overall_hits::.cpu.inst             67                       # number of overall hits
system.cpu.l1i.overall_hits::total                 67                       # number of overall hits
system.cpu.l1i.demand_misses::.cpu.inst             7                       # number of demand (read+write) misses
system.cpu.l1i.demand_misses::total                 7                       # number of demand (read+write) misses
system.cpu.l1i.overall_misses::.cpu.inst            7                       # number of overall misses
system.cpu.l1i.overall_misses::total                7                       # number of overall misses
system.cpu.l1i.demand_miss_latency::.cpu.inst       324000                       # number of demand (read+write) miss cycles
system.cpu.l1i.demand_miss_latency::total       324000                       # number of demand (read+write) miss cycles
system.cpu.l1i.overall_miss_latency::.cpu.inst       324000                       # number of overall miss cycles
system.cpu.l1i.overall_miss_latency::total       324000                       # number of overall miss cycles
system.cpu.l1i.demand_accesses::.cpu.inst           74                       # number of demand (read+write) accesses
system.cpu.l1i.demand_accesses::total              74                       # number of demand (read+write) accesses
system.cpu.l1i.overall_accesses::.cpu.inst           74                       # number of overall (read+write) accesses
system.cpu.l1i.overall_accesses::total             74                       # number of overall (read+write) accesses
system.cpu.l1i.demand_miss_rate::.cpu.inst     0.094595                       # miss rate for demand accesses
system.cpu.l1i.demand_miss_rate::total       0.094595                       # miss rate for demand accesses
system.cpu.l1i.overall_miss_rate::.cpu.inst     0.094595                       # miss rate for overall accesses
system.cpu.l1i.overall_miss_rate::total      0.094595                       # miss rate for overall accesses
system.cpu.l1i.demand_avg_miss_latency::.cpu.inst 46285.714286                       # average overall miss latency
system.cpu.l1i.demand_avg_miss_latency::total 46285.714286                       # average overall miss latency
system.cpu.l1i.overall_avg_miss_latency::.cpu.inst 46285.714286                       # average overall miss latency
system.cpu.l1i.overall_avg_miss_latency::total 46285.714286                       # average overall miss latency
system.cpu.l1i.blocked_cycles::no_mshrs             0                       # number of cycles access was blocked
system.cpu.l1i.blocked_cycles::no_targets            0                       # number of cycles access was blocked
system.cpu.l1i.blocked::no_mshrs                    0                       # number of cycles access was blocked
system.cpu.l1i.blocked::no_targets                  0                       # number of cycles access was blocked
system.cpu.l1i.avg_blocked_cycles::no_mshrs          nan                       # average number of cycles each access was blocked
system.cpu.l1i.avg_blocked_cycles::no_targets          nan                       # average number of cycles each access was blocked
system.cpu.l1i.demand_mshr_hits::.cpu.inst            5                       # number of demand (read+write) MSHR hits
system.cpu.l1i.demand_mshr_hits::total              5                       # number of demand (read+write) MSHR hits
system.cpu.l1i.overall_mshr_hits::.cpu.inst            5                       # number of overall MSHR hits
system.cpu.l1i.overall_mshr_hits::total             5                       # number of overall MSHR hits
system.cpu.l1i.demand_mshr_misses::.cpu.inst            2                       # number of demand (read+write) MSHR misses
system.cpu.l1i.demand_mshr_misses::total            2                       # number of demand (read+write) MSHR misses
system.cpu.l1i.overall_mshr_misses::.cpu.inst            2                       # number of overall MSHR misses
system.cpu.l1i.overall_mshr_misses::total            2                       # number of overall MSHR misses
system.cpu.l1i.demand_mshr_miss_latency::.cpu.inst        91000                       # number of demand (read+write) MSHR miss cycles
system.cpu.l1i.demand_mshr_miss_latency::total        91000                       # number of demand (read+write) MSHR miss cycles
system.cpu.l1i.overall_mshr_miss_latency::.cpu.inst        91000                       # number of overall MSHR miss cycles
system.cpu.l1i.overall_mshr_miss_latency::total        91000                       # number of overall MSHR miss cycles
system.cpu.l1i.demand_mshr_miss_rate::.cpu.inst     0.027027                       # mshr miss rate for demand accesses
system.cpu.l1i.demand_mshr_miss_rate::total     0.027027                       # mshr miss rate for demand accesses
system.cpu.l1i.overall_mshr_miss_rate::.cpu.inst     0.027027                       # mshr miss rate for overall accesses
system.cpu.l1i.overall_mshr_miss_rate::total     0.027027                       # mshr miss rate for overall accesses
system.cpu.l1i.demand_avg_mshr_miss_latency::.cpu.inst        45500                       # average overall mshr miss latency
system.cpu.l1i.demand_avg_mshr_miss_latency::total        45500                       # average overall mshr miss latency
system.cpu.l1i.overall_avg_mshr_miss_latency::.cpu.inst        45500                       # average overall mshr miss latency
system.cpu.l1i.overall_avg_mshr_miss_latency::total        45500                       # average overall mshr miss latency
system.cpu.l1i.replacements                         0                       # number of replacements
system.cpu.l1i.ReadReq_hits::.cpu.inst             67                       # number of ReadReq hits
system.cpu.l1i.ReadReq_hits::total                 67                       # number of ReadReq hits
system.cpu.l1i.ReadReq_misses::.cpu.inst            7                       # number of ReadReq misses
system.cpu.l1i.ReadReq_misses::total                7                       # number of ReadReq misses
system.cpu.l1i.ReadReq_miss_latency::.cpu.inst       324000                       # number of ReadReq miss cycles
system.cpu.l1i.ReadReq_miss_latency::total       324000                       # number of ReadReq miss cycles
system.cpu.l1i.ReadReq_accesses::.cpu.inst           74                       # number of ReadReq accesses(hits+misses)
system.cpu.l1i.ReadReq_accesses::total             74                       # number of ReadReq accesses(hits+misses)
system.cpu.l1i.ReadReq_miss_rate::.cpu.inst     0.094595                       # miss rate for ReadReq accesses
system.cpu.l1i.ReadReq_miss_rate::total      0.094595                       # miss rate for ReadReq accesses
system.cpu.l1i.ReadReq_avg_miss_latency::.cpu.inst 46285.714286                       # average ReadReq miss latency
system.cpu.l1i.ReadReq_avg_miss_latency::total 46285.714286                       # average ReadReq miss latency
system.cpu.l1i.ReadReq_mshr_hits::.cpu.inst            5                       # number of ReadReq MSHR hits
system.cpu.l1i.ReadReq_mshr_hits::total             5                       # number of ReadReq MSHR hits
system.cpu.l1i.ReadReq_mshr_misses::.cpu.inst            2                       # number of ReadReq MSHR misses
system.cpu.l1i.ReadReq_mshr_misses::total            2                       # number of ReadReq MSHR misses
system.cpu.l1i.ReadReq_mshr_miss_latency::.cpu.inst        91000                       # number of ReadReq MSHR miss cycles
system.cpu.l1i.ReadReq_mshr_miss_latency::total        91000                       # number of ReadReq MSHR miss cycles
system.cpu.l1i.ReadReq_mshr_miss_rate::.cpu.inst     0.027027                       # mshr miss rate for ReadReq accesses
system.cpu.l1i.ReadReq_mshr_miss_rate::total     0.027027                       # mshr miss rate for ReadReq accesses
system.cpu.l1i.ReadReq_avg_mshr_miss_latency::.cpu.inst        45500                       # average ReadReq mshr miss latency
system.cpu.l1i.ReadReq_avg_mshr_miss_latency::total        45500                       # average ReadReq mshr miss latency
system.cpu.l1i.power_state.pwrStateResidencyTicks::UNDEFINED    157199000                       # Cumulative time (in ticks) in various power states
system.cpu.l1i.tags.tagsinuse              400.999239                       # Cycle average of tags in use
system.cpu.l1i.tags.total_refs                      0                       # Total number of references to valid blocks.
system.cpu.l1i.tags.sampled_refs                    0                       # Sample count of references to valid blocks.
system.cpu.l1i.tags.avg_refs                      nan                       # Average number of references to valid blocks.
system.cpu.l1i.tags.warmup_cycle                    0                       # Cycle when the warmup percentage was hit.
system.cpu.l1i.tags.occ_blocks::.cpu.inst   400.999239                       # Average occupied blocks per requestor
system.cpu.l1i.tags.occ_percent::.cpu.inst     0.783202                       # Average percentage of cache occupancy
system.cpu.l1i.tags.occ_percent::total       0.783202                       # Average percentage of cache occupancy
system.cpu.l1i.tags.occ_task_id_blocks::1024          401                       # Occupied blocks per task id
system.cpu.l1i.tags.age_task_id_blocks_1024::2          401                       # Occupied blocks per task id
system.cpu.l1i.tags.occ_task_id_percent::1024     0.783203                       # Percentage of cache occupancy per task id
system.cpu.l1i.tags.tag_accesses                  593                       # Number of tag accesses
system.cpu.l1i.tags.data_accesses                 593                       # Number of data accesses
system.cpu.l1i.tags.power_state.pwrStateResidencyTicks::UNDEFINED    157199000                       # Cumulative time (in ticks) in various power states
system.cpu.lsq0.forwLoads                           2                       # Number of loads that had data forwarded from stores
system.cpu.lsq0.squashedLoads                      66                       # Number of loads squashed
system.cpu.lsq0.ignoredResponses                    0                       # Number of memory responses ignored because the instruction is squashed
system.cpu.lsq0.memOrderViolation                   4                       # Number of memory ordering violations
system.cpu.lsq0.squashedStores                     37                       # Number of stores squashed
system.cpu.lsq0.rescheduledLoads                    2                       # Number of loads that were rescheduled
system.cpu.lsq0.blockedByCache                      0                       # Number of times an access to memory failed due to the cache being blocked
system.cpu.power_state.pwrStateResidencyTicks::ON    157199000                       # Cumulative time (in ticks) in various power states
system.cpu.rename.squashCycles                     18                       # Number of cycles rename is squashing
system.cpu.rename.idleCycles                    16458                       # Number of cycles rename is idle
system.cpu.rename.blockCycles                   55484                       # Number of cycles rename is blocking
system.cpu.rename.serializeStallCycles              0                       # count of cycles rename stalledfor serializing inst
system.cpu.rename.runCycles                     19031                       # Number of cycles rename is running
system.cpu.rename.unblockCycles                 35137                       # Number of cycles rename is unblocking
system.cpu.rename.renamedInsts                 230172                       # Number of instructions processed by rename
system.cpu.rename.ROBFullEvents                 13846                       # Number of times rename has blocked due to ROB full
system.cpu.rename.IQFullEvents                  12607                       # Number of times rename has blocked due to IQ full
system.cpu.rename.renamedOperands              262973                       # Number of destination operands rename has renamed
system.cpu.rename.lookups                      476739                       # Number of register rename lookups that rename has made
system.cpu.rename.intLookups                   197422                       # Number of integer rename lookups
system.cpu.rename.fpLookups                    115017                       # Number of floating rename lookups
system.cpu.rename.committedMaps                262198                       # Number of HB maps that are committed
system.cpu.rename.undoneMaps                      758                       # Number of HB maps that are undone due to squashing
system.cpu.rename.serializing                       0                       # count of serializing insts renamed
system.cpu.rename.tempSerializing                   0                       # count of temporary serializing insts renamed
system.cpu.rename.skidInsts                    116349                       # count of insts added to the skid buffer
system.cpu.rob.reads                           339630                       # The number of ROB reads
system.cpu.rob.writes                          460087                       # The number of ROB writes
system.cpu.thread_0.numInsts                   114713                       # Number of Instructions committed
system.cpu.thread_0.numOps                     229429                       # Number of Ops committed
system.cpu.thread_0.numMemRefs                      0                       # Number of Memory References
system.l1_to_l2.trans_dist::ReadResp             2058                       # Transaction distribution
system.l1_to_l2.trans_dist::WritebackDirty          912                       # Transaction distribution
system.l1_to_l2.trans_dist::CleanEvict            852                       # Transaction distribution
system.l1_to_l2.trans_dist::ReadSharedReq         2059                       # Transaction distribution
system.l1_to_l2.pkt_count_system.cpu.l1d.mem_side_port::system.l2cache.cpu_side_port         5878                       # Packet count per connected requestor and responder (bytes)
system.l1_to_l2.pkt_count_system.cpu.l1i.mem_side_port::system.l2cache.cpu_side_port            3                       # Packet count per connected requestor and responder (bytes)
system.l1_to_l2.pkt_count::total                 5881                       # Packet count per connected requestor and responder (bytes)
system.l1_to_l2.pkt_size_system.cpu.l1d.mem_side_port::system.l2cache.cpu_side_port       190016                       # Cumulative packet size per connected requestor and responder (bytes)
system.l1_to_l2.pkt_size_system.cpu.l1i.mem_side_port::system.l2cache.cpu_side_port           64                       # Cumulative packet size per connected requestor and responder (bytes)
system.l1_to_l2.pkt_size::total                190080                       # Cumulative packet size per connected requestor and responder (bytes)
system.l1_to_l2.snoops                              0                       # Total snoops (count)
system.l1_to_l2.snoopTraffic                        0                       # Total snoop traffic (bytes)
system.l1_to_l2.snoop_fanout::samples            2059                       # Request fanout histogram
system.l1_to_l2.snoop_fanout::mean                  0                       # Request fanout histogram
system.l1_to_l2.snoop_fanout::stdev                 0                       # Request fanout histogram
system.l1_to_l2.snoop_fanout::underflows            0      0.00%      0.00% # Request fanout histogram
system.l1_to_l2.snoop_fanout::0                  2059    100.00%    100.00% # Request fanout histogram
system.l1_to_l2.snoop_fanout::1                     0      0.00%    100.00% # Request fanout histogram
system.l1_to_l2.snoop_fanout::2                     0      0.00%    100.00% # Request fanout histogram
system.l1_to_l2.snoop_fanout::overflows             0      0.00%    100.00% # Request fanout histogram
system.l1_to_l2.snoop_fanout::min_value             0                       # Request fanout histogram
system.l1_to_l2.snoop_fanout::max_value             0                       # Request fanout histogram
system.l1_to_l2.snoop_fanout::total              2059                       # Request fanout histogram
system.l1_to_l2.power_state.pwrStateResidencyTicks::UNDEFINED    157199000                       # Cumulative time (in ticks) in various power states
system.l1_to_l2.reqLayer0.occupancy           4735000                       # Layer occupancy (ticks)
system.l1_to_l2.reqLayer0.utilization             3.8                       # Layer utilization (%)
system.l1_to_l2.respLayer0.occupancy          4114000                       # Layer occupancy (ticks)
system.l1_to_l2.respLayer0.utilization            3.3                       # Layer utilization (%)
system.l1_to_l2.respLayer1.occupancy             2000                       # Layer occupancy (ticks)
system.l1_to_l2.respLayer1.utilization            0.0                       # Layer utilization (%)
system.l2cache.demand_hits::.cpu.data            1032                       # number of demand (read+write) hits
system.l2cache.demand_hits::total                1032                       # number of demand (read+write) hits
system.l2cache.overall_hits::.cpu.data           1032                       # number of overall hits
system.l2cache.overall_hits::total               1032                       # number of overall hits
system.l2cache.demand_misses::.cpu.inst             2                       # number of demand (read+write) misses
system.l2cache.demand_misses::.cpu.data          1025                       # number of demand (read+write) misses
system.l2cache.demand_misses::total              1027                       # number of demand (read+write) misses
system.l2cache.overall_misses::.cpu.inst            2                       # number of overall misses
system.l2cache.overall_misses::.cpu.data         1025                       # number of overall misses
system.l2cache.overall_misses::total             1027                       # number of overall misses
system.l2cache.demand_miss_latency::.cpu.inst        89000                       # number of demand (read+write) miss cycles
system.l2cache.demand_miss_latency::.cpu.data     66315000                       # number of demand (read+write) miss cycles
system.l2cache.demand_miss_latency::total     66404000                       # number of demand (read+write) miss cycles
system.l2cache.overall_miss_latency::.cpu.inst        89000                       # number of overall miss cycles
system.l2cache.overall_miss_latency::.cpu.data     66315000                       # number of overall miss cycles
system.l2cache.overall_miss_latency::total     66404000                       # number of overall miss cycles
system.l2cache.demand_accesses::.cpu.inst            2                       # number of demand (read+write) accesses
system.l2cache.demand_accesses::.cpu.data         2057                       # number of demand (read+write) accesses
system.l2cache.demand_accesses::total            2059                       # number of demand (read+write) accesses
system.l2cache.overall_accesses::.cpu.inst            2                       # number of overall (read+write) accesses
system.l2cache.overall_accesses::.cpu.data         2057                       # number of overall (read+write) accesses
system.l2cache.overall_accesses::total           2059                       # number of overall (read+write) accesses
system.l2cache.demand_miss_rate::.cpu.inst            1                       # miss rate for demand accesses
system.l2cache.demand_miss_rate::.cpu.data     0.498298                       # miss rate for demand accesses
system.l2cache.demand_miss_rate::total       0.498786                       # miss rate for demand accesses
system.l2cache.overall_miss_rate::.cpu.inst            1                       # miss rate for overall accesses
system.l2cache.overall_miss_rate::.cpu.data     0.498298                       # miss rate for overall accesses
system.l2cache.overall_miss_rate::total      0.498786                       # miss rate for overall accesses
system.l2cache.demand_avg_miss_latency::.cpu.inst        44500                       # average overall miss latency
system.l2cache.demand_avg_miss_latency::.cpu.data 64697.560976                       # average overall miss latency
system.l2cache.demand_avg_miss_latency::total 64658.227848                       # average overall miss latency
system.l2cache.overall_avg_miss_latency::.cpu.inst        44500                       # average overall miss latency
system.l2cache.overall_avg_miss_latency::.cpu.data 64697.560976                       # average overall miss latency
system.l2cache.overall_avg_miss_latency::total 64658.227848                       # average overall miss latency
system.l2cache.blocked_cycles::no_mshrs             0                       # number of cycles access was blocked
system.l2cache.blocked_cycles::no_targets            0                       # number of cycles access was blocked
system.l2cache.blocked::no_mshrs                    0                       # number of cycles access was blocked
[...]
system.mem_ctrl.dram.bytes_inst_read::.cpu.inst          128                       # Number of instructions bytes read from this memory
system.mem_ctrl.dram.bytes_inst_read::total          128                       # Number of instructions bytes read from this memory
system.mem_ctrl.dram.num_reads::.cpu.inst            2                       # Number of read requests responded to by this memory
system.mem_ctrl.dram.num_reads::.cpu.data         1026                       # Number of read requests responded to by this memory
system.mem_ctrl.dram.num_reads::total            1028                       # Number of read requests responded to by this memory
system.mem_ctrl.dram.bw_read::.cpu.inst       1014842                       # Total read bandwidth from this memory (bytes/s)
system.mem_ctrl.dram.bw_read::.cpu.data     520613979                       # Total read bandwidth from this memory (bytes/s)
system.mem_ctrl.dram.bw_read::total         521628822                       # Total read bandwidth from this memory (bytes/s)
system.mem_ctrl.dram.bw_inst_read::.cpu.inst      1014842                       # Instruction read bandwidth from this memory (bytes/s)
system.mem_ctrl.dram.bw_inst_read::total      1014842                       # Instruction read bandwidth from this memory (bytes/s)
system.mem_ctrl.dram.bw_total::.cpu.inst      1014842                       # Total bandwidth to/from this memory (bytes/s)
system.mem_ctrl.dram.bw_total::.cpu.data    520613979                       # Total bandwidth to/from this memory (bytes/s)
system.mem_ctrl.dram.bw_total::total        521628822                       # Total bandwidth to/from this memory (bytes/s)
system.mem_ctrl.dram.readBursts                  1028                       # Number of DRAM read bursts
system.mem_ctrl.dram.writeBursts                    0                       # Number of DRAM write bursts
system.mem_ctrl.dram.perBankRdBursts::0             0                       # Per bank write bursts
system.mem_ctrl.dram.perBankRdBursts::1           116                       # Per bank write bursts
system.mem_ctrl.dram.perBankRdBursts::2           128                       # Per bank write bursts
system.mem_ctrl.dram.perBankRdBursts::3           128                       # Per bank write bursts
system.mem_ctrl.dram.perBankRdBursts::4           128                       # Per bank write bursts
system.mem_ctrl.dram.perBankRdBursts::5           128                       # Per bank write bursts
system.mem_ctrl.dram.perBankRdBursts::6           128                       # Per bank write bursts
system.mem_ctrl.dram.perBankRdBursts::7           130                       # Per bank write bursts
system.mem_ctrl.dram.perBankRdBursts::8           128                       # Per bank write bursts
system.mem_ctrl.dram.perBankRdBursts::9            12                       # Per bank write bursts
system.mem_ctrl.dram.perBankRdBursts::10            1                       # Per bank write bursts
system.mem_ctrl.dram.perBankRdBursts::11            0                       # Per bank write bursts
system.mem_ctrl.dram.perBankRdBursts::12            0                       # Per bank write bursts
system.mem_ctrl.dram.perBankRdBursts::13            0                       # Per bank write bursts
system.mem_ctrl.dram.perBankRdBursts::14            0                       # Per bank write bursts
system.mem_ctrl.dram.perBankRdBursts::15            0                       # Per bank write bursts
system.mem_ctrl.dram.perBankRdBursts::16            0                       # Per bank write bursts
system.mem_ctrl.dram.perBankRdBursts::17            0                       # Per bank write bursts
system.mem_ctrl.dram.perBankRdBursts::18            0                       # Per bank write bursts
system.mem_ctrl.dram.perBankRdBursts::19            0                       # Per bank write bursts
system.mem_ctrl.dram.perBankRdBursts::20            0                       # Per bank write bursts
system.mem_ctrl.dram.perBankRdBursts::21            0                       # Per bank write bursts
system.mem_ctrl.dram.perBankRdBursts::22            0                       # Per bank write bursts
system.mem_ctrl.dram.perBankRdBursts::23            0                       # Per bank write bursts
system.mem_ctrl.dram.perBankRdBursts::24            0                       # Per bank write bursts
system.mem_ctrl.dram.perBankRdBursts::25            0                       # Per bank write bursts
system.mem_ctrl.dram.perBankRdBursts::26            0                       # Per bank write bursts
system.mem_ctrl.dram.perBankRdBursts::27            0                       # Per bank write bursts
system.mem_ctrl.dram.perBankRdBursts::28            0                       # Per bank write bursts
system.mem_ctrl.dram.perBankRdBursts::29            0                       # Per bank write bursts
system.mem_ctrl.dram.perBankRdBursts::30            0                       # Per bank write bursts
system.mem_ctrl.dram.perBankRdBursts::31            1                       # Per bank write bursts
system.mem_ctrl.dram.perBankWrBursts::0             0                       # Per bank write bursts
system.mem_ctrl.dram.perBankWrBursts::1             0                       # Per bank write bursts
system.mem_ctrl.dram.perBankWrBursts::2             0                       # Per bank write bursts
system.mem_ctrl.dram.perBankWrBursts::3             0                       # Per bank write bursts
system.mem_ctrl.dram.perBankWrBursts::4             0                       # Per bank write bursts
system.mem_ctrl.dram.perBankWrBursts::5             0                       # Per bank write bursts
system.mem_ctrl.dram.perBankWrBursts::6             0                       # Per bank write bursts
system.mem_ctrl.dram.perBankWrBursts::7             0                       # Per bank write bursts
system.mem_ctrl.dram.perBankWrBursts::8             0                       # Per bank write bursts
system.mem_ctrl.dram.perBankWrBursts::9             0                       # Per bank write bursts
system.mem_ctrl.dram.perBankWrBursts::10            0                       # Per bank write bursts
system.mem_ctrl.dram.perBankWrBursts::11            0                       # Per bank write bursts
system.mem_ctrl.dram.perBankWrBursts::12            0                       # Per bank write bursts
system.mem_ctrl.dram.perBankWrBursts::13            0                       # Per bank write bursts
system.mem_ctrl.dram.perBankWrBursts::14            0                       # Per bank write bursts
system.mem_ctrl.dram.perBankWrBursts::15            0                       # Per bank write bursts
system.mem_ctrl.dram.perBankWrBursts::16            0                       # Per bank write bursts
system.mem_ctrl.dram.perBankWrBursts::17            0                       # Per bank write bursts
system.mem_ctrl.dram.perBankWrBursts::18            0                       # Per bank write bursts
system.mem_ctrl.dram.perBankWrBursts::19            0                       # Per bank write bursts
system.mem_ctrl.dram.perBankWrBursts::20            0                       # Per bank write bursts
system.mem_ctrl.dram.perBankWrBursts::21            0                       # Per bank write bursts
system.mem_ctrl.dram.perBankWrBursts::22            0                       # Per bank write bursts
system.mem_ctrl.dram.perBankWrBursts::23            0                       # Per bank write bursts
system.mem_ctrl.dram.perBankWrBursts::24            0                       # Per bank write bursts
system.mem_ctrl.dram.perBankWrBursts::25            0                       # Per bank write bursts
system.mem_ctrl.dram.perBankWrBursts::26            0                       # Per bank write bursts
system.mem_ctrl.dram.perBankWrBursts::27            0                       # Per bank write bursts
system.mem_ctrl.dram.perBankWrBursts::28            0                       # Per bank write bursts
system.mem_ctrl.dram.perBankWrBursts::29            0                       # Per bank write bursts
system.mem_ctrl.dram.perBankWrBursts::30            0                       # Per bank write bursts
system.mem_ctrl.dram.perBankWrBursts::31            0                       # Per bank write bursts
system.mem_ctrl.dram.totQLat                  4883788                       # Total ticks spent queuing
system.mem_ctrl.dram.totBusLat                3425296                       # Total ticks spent in databus transfers
system.mem_ctrl.dram.totMemAccLat            22865564                       # Total ticks spent from burst creation until serviced by the DRAM
system.mem_ctrl.dram.avgQLat                  4750.77                       # Average queueing delay per DRAM burst
system.mem_ctrl.dram.avgBusLat                3332.00                       # Average bus latency per DRAM burst
system.mem_ctrl.dram.avgMemAccLat            22242.77                       # Average memory access latency per DRAM burst
system.mem_ctrl.dram.readRowHits                  942                       # Number of row buffer hits during reads
system.mem_ctrl.dram.writeRowHits                   0                       # Number of row buffer hits during writes
system.mem_ctrl.dram.readRowHitRate             91.63                       # Row buffer hit rate for reads
system.mem_ctrl.dram.writeRowHitRate              nan                       # Row buffer hit rate for writes
system.mem_ctrl.dram.bytesPerActivate::samples          108                       # Bytes accessed per row activation
system.mem_ctrl.dram.bytesPerActivate::mean   660.148148                       # Bytes accessed per row activation
system.mem_ctrl.dram.bytesPerActivate::gmean   471.730817                       # Bytes accessed per row activation
system.mem_ctrl.dram.bytesPerActivate::stdev   398.543114                       # Bytes accessed per row activation
system.mem_ctrl.dram.bytesPerActivate::0-127           11     10.19%     10.19% # Bytes accessed per row activation
system.mem_ctrl.dram.bytesPerActivate::128-255           20     18.52%     28.70% # Bytes accessed per row activation
system.mem_ctrl.dram.bytesPerActivate::256-383            6      5.56%     34.26% # Bytes accessed per row activation
system.mem_ctrl.dram.bytesPerActivate::384-511            5      4.63%     38.89% # Bytes accessed per row activation
system.mem_ctrl.dram.bytesPerActivate::512-639            4      3.70%     42.59% # Bytes accessed per row activation
system.mem_ctrl.dram.bytesPerActivate::640-767            2      1.85%     44.44% # Bytes accessed per row activation
system.mem_ctrl.dram.bytesPerActivate::768-895            6      5.56%     50.00% # Bytes accessed per row activation
system.mem_ctrl.dram.bytesPerActivate::896-1023            2      1.85%     51.85% # Bytes accessed per row activation
system.mem_ctrl.dram.bytesPerActivate::1024-1151           52     48.15%    100.00% # Bytes accessed per row activation
system.mem_ctrl.dram.bytesPerActivate::total          108                       # Bytes accessed per row activation
system.mem_ctrl.dram.bytesRead                  65792                       # Total number of bytes read from DRAM
system.mem_ctrl.dram.bytesWritten                   0                       # Total number of bytes written to DRAM
system.mem_ctrl.dram.avgRdBW               521.628822                       # Average DRAM read bandwidth in MiBytes/s
system.mem_ctrl.dram.avgWrBW                        0                       # Average DRAM write bandwidth in MiBytes/s
system.mem_ctrl.dram.peakBW                  19207.00                       # Theoretical peak bandwidth in MiByte/s
system.mem_ctrl.dram.busUtil                     2.72                       # Data bus utilization in percentage
system.mem_ctrl.dram.busUtilRead                 2.72                       # Data bus utilization in percentage for reads
system.mem_ctrl.dram.busUtilWrite                0.00                       # Data bus utilization in percentage for writes
system.mem_ctrl.dram.pageHitRate                91.63                       # Row buffer hit rate, read and write combined
system.mem_ctrl.dram.power_state.pwrStateResidencyTicks::UNDEFINED    157199000                       # Cumulative time (in ticks) in various power states
system.mem_ctrl.dram.rank0.actEnergy     339943.968000                       # Energy for activate commands per rank (pJ)
system.mem_ctrl.dram.rank0.preEnergy     447804.806400                       # Energy for precharge commands per rank (pJ)
system.mem_ctrl.dram.rank0.readEnergy    4690043.232000                       # Energy for read commands per rank (pJ)
system.mem_ctrl.dram.rank0.writeEnergy              0                       # Energy for write commands per rank (pJ)
system.mem_ctrl.dram.rank0.refreshEnergy 23551419.662400                       # Energy for refresh commands per rank (pJ)
system.mem_ctrl.dram.rank0.actBackEnergy 79265697.033600                       # Energy for active background per rank (pJ)
system.mem_ctrl.dram.rank0.preBackEnergy 26229344.064000                       # Energy for precharge background per rank (pJ)
system.mem_ctrl.dram.rank0.actPowerDownEnergy            0                       # Energy for active power-down per rank (pJ)
system.mem_ctrl.dram.rank0.prePowerDownEnergy            0                       # Energy for precharge power-down per rank (pJ)
system.mem_ctrl.dram.rank0.selfRefreshEnergy            0                       # Energy for self refresh per rank (pJ)
system.mem_ctrl.dram.rank0.totalEnergy   134524252.766400                       # Total energy per rank (pJ)
system.mem_ctrl.dram.rank0.averagePower   1066.569301                       # Core power per rank (mW)
system.mem_ctrl.dram.rank0.totalIdleTime            0                       # Total Idle time Per DRAM Rank
system.mem_ctrl.dram.rank0.pwrStateTime::IDLE     39467720                       # Time in different power states
system.mem_ctrl.dram.rank0.pwrStateTime::REF      5950000                       # Time in different power states
system.mem_ctrl.dram.rank0.pwrStateTime::SREF            0                       # Time in different power states
system.mem_ctrl.dram.rank0.pwrStateTime::PRE_PDN            0                       # Time in different power states
system.mem_ctrl.dram.rank0.pwrStateTime::ACT     88059600                       # Time in different power states
system.mem_ctrl.dram.rank0.pwrStateTime::ACT_PDN            0                       # Time in different power states
system.mem_ctrl.dram.rank1.actEnergy     46781.280000                       # Energy for activate commands per rank (pJ)
system.mem_ctrl.dram.rank1.preEnergy     58048.771200                       # Energy for precharge commands per rank (pJ)
system.mem_ctrl.dram.rank1.readEnergy    256585.324800                       # Energy for read commands per rank (pJ)
system.mem_ctrl.dram.rank1.writeEnergy              0                       # Energy for write commands per rank (pJ)
system.mem_ctrl.dram.rank1.refreshEnergy 23551419.662400                       # Energy for refresh commands per rank (pJ)
system.mem_ctrl.dram.rank1.actBackEnergy 10850713.977600                       # Energy for active background per rank (pJ)
system.mem_ctrl.dram.rank1.preBackEnergy 78531422.860800                       # Energy for precharge background per rank (pJ)
system.mem_ctrl.dram.rank1.actPowerDownEnergy            0                       # Energy for active power-down per rank (pJ)
system.mem_ctrl.dram.rank1.prePowerDownEnergy            0                       # Energy for precharge power-down per rank (pJ)
system.mem_ctrl.dram.rank1.selfRefreshEnergy            0                       # Energy for self refresh per rank (pJ)
system.mem_ctrl.dram.rank1.totalEnergy   113294971.876800                       # Total energy per rank (pJ)
system.mem_ctrl.dram.rank1.averagePower    898.253932                       # Core power per rank (mW)
system.mem_ctrl.dram.rank1.totalIdleTime            0                       # Total Idle time Per DRAM Rank
system.mem_ctrl.dram.rank1.pwrStateTime::IDLE    120055480                       # Time in different power states
system.mem_ctrl.dram.rank1.pwrStateTime::REF      5950000                       # Time in different power states
system.mem_ctrl.dram.rank1.pwrStateTime::SREF            0                       # Time in different power states
system.mem_ctrl.dram.rank1.pwrStateTime::PRE_PDN            0                       # Time in different power states
system.mem_ctrl.dram.rank1.pwrStateTime::ACT      7065520                       # Time in different power states
system.mem_ctrl.dram.rank1.pwrStateTime::ACT_PDN            0                       # Time in different power states
system.mem_ctrl.power_state.pwrStateResidencyTicks::UNDEFINED    157199000                       # Cumulative time (in ticks) in various power states
system.membus.trans_dist::ReadResp               1026                       # Transaction distribution
system.membus.trans_dist::ReadSharedReq          1028                       # Transaction distribution
system.membus.pkt_count_system.l2cache.mem_side_port::system.mem_ctrl.port         2054                       # Packet count per connected requestor and responder (bytes)
system.membus.pkt_count_system.l2cache.mem_side_port::total         2054                       # Packet count per connected requestor and responder (bytes)
system.membus.pkt_count::total                   2054                       # Packet count per connected requestor and responder (bytes)
system.membus.pkt_size_system.l2cache.mem_side_port::system.mem_ctrl.port        65664                       # Cumulative packet size per connected requestor and responder (bytes)
system.membus.pkt_size_system.l2cache.mem_side_port::total        65664                       # Cumulative packet size per connected requestor and responder (bytes)
system.membus.pkt_size::total                   65664                       # Cumulative packet size per connected requestor and responder (bytes)
system.membus.snoops                                0                       # Total snoops (count)
system.membus.snoopTraffic                          0                       # Total snoop traffic (bytes)
system.membus.snoop_fanout::samples              1028                       # Request fanout histogram
system.membus.snoop_fanout::mean                    0                       # Request fanout histogram
system.membus.snoop_fanout::stdev                   0                       # Request fanout histogram
system.membus.snoop_fanout::underflows              0      0.00%      0.00% # Request fanout histogram
system.membus.snoop_fanout::0                    1028    100.00%    100.00% # Request fanout histogram
system.membus.snoop_fanout::1                       0      0.00%    100.00% # Request fanout histogram
system.membus.snoop_fanout::overflows               0      0.00%    100.00% # Request fanout histogram
system.membus.snoop_fanout::min_value               0                       # Request fanout histogram
system.membus.snoop_fanout::max_value               0                       # Request fanout histogram
system.membus.snoop_fanout::total                1028                       # Request fanout histogram
system.membus.power_state.pwrStateResidencyTicks::UNDEFINED    157199000                       # Cumulative time (in ticks) in various power states
system.membus.reqLayer0.occupancy             1028000                       # Layer occupancy (ticks)
system.membus.reqLayer0.utilization               0.8                       # Layer utilization (%)
system.membus.respLayer0.occupancy            2561740                       # Layer occupancy (ticks)
system.membus.respLayer0.utilization              2.0                       # Layer utilization (%)

---------- End Simulation Statistics   ----------
