
---------- Begin Simulation Statistics ----------
final_tick                                 5339063000                       # Number of ticks from beginning of simulation (restored from checkpoints and never reset)
host_inst_rate                                  67758                       # Simulator instruction rate (inst/s)
host_mem_usage                                 675108                       # Number of bytes of host memory used
host_op_rate                                   127705                       # Simulator op (including micro ops) rate (op/s)
host_seconds                                   147.58                       # Real time elapsed on the host
host_tick_rate                               36176556                       # Simulator tick rate (ticks/s)
sim_freq                                 1000000000000                       # Frequency of simulated ticks
sim_insts                                    10000001                       # Number of instructions simulated
sim_ops                                      18847133                       # Number of ops (including micro ops) simulated
sim_seconds                                  0.005339                       # Number of seconds simulated
sim_ticks                                  5339063000                       # Number of ticks simulated
system.cpu.cc_regfile_reads                  12075827                       # number of cc regfile reads
system.cpu.cc_regfile_writes                  5811095                       # number of cc regfile writes
system.cpu.committedInsts                    10000001                       # Number of Instructions Simulated
system.cpu.committedOps                      18847133                       # Number of Ops (including micro ops) Simulated
system.cpu.cpi                               1.067813                       # CPI: Cycles Per Instruction
system.cpu.cpi_total                         1.067813                       # CPI: Total CPI of All Threads
system.cpu.fp_regfile_reads                    528908                       # number of floating regfile reads
system.cpu.fp_regfile_writes                   290311                       # number of floating regfile writes
system.cpu.idleCycles                           85115                       # Total number of cycles that the CPU has spent unscheduled due to idling
system.cpu.iew.branchMispredicts                55092                       # Number of branch mispredicts detected at execute
system.cpu.iew.exec_branches                  2175059                       # Number of branches executed
system.cpu.iew.exec_nop                             0                       # number of nop insts executed
system.cpu.iew.exec_rate                     1.853451                       # Inst execution rate
system.cpu.iew.exec_refs                      4026977                       # number of memory reference insts executed
system.cpu.iew.exec_stores                    1649789                       # Number of stores executed
system.cpu.iew.exec_swp                             0                       # number of swp insts executed
system.cpu.iew.iewBlockCycles                  868238                       # Number of cycles IEW is blocking
system.cpu.iew.iewDispLoadInsts               2415421                       # Number of dispatched load instructions
system.cpu.iew.iewDispNonSpecInsts                 73                       # Number of dispatched non-speculative instructions
system.cpu.iew.iewDispSquashedInsts              1781                       # Number of squashed instructions skipped by dispatch
system.cpu.iew.iewDispStoreInsts              1688158                       # Number of dispatched store instructions
system.cpu.iew.iewDispatchedInsts            20302914                       # Number of instructions dispatched to IQ
system.cpu.iew.iewExecLoadInsts               2377188                       # Number of load instructions executed
system.cpu.iew.iewExecSquashedInsts            108493                       # Number of squashed instructions skipped in execute
system.cpu.iew.iewExecutedInsts              19791381                       # Number of executed instructions
system.cpu.iew.iewIQFullEvents                   6919                       # Number of times the IQ has become full, causing a stall
system.cpu.iew.iewIdleCycles                        0                       # Number of cycles IEW is idle
system.cpu.iew.iewLSQFullEvents                697607                       # Number of times the LSQ has become full, causing a stall
system.cpu.iew.iewSquashCycles                  46631                       # Number of cycles IEW is squashing
system.cpu.iew.iewUnblockCycles                711393                       # Number of cycles IEW is unblocking
system.cpu.iew.memOrderViolationEvents            212                       # Number of memory order violations
system.cpu.iew.predictedNotTakenIncorrect        39922                       # Number of branches that were predicted not taken incorrectly
system.cpu.iew.predictedTakenIncorrect          15170                       # Number of branches that were predicted taken incorrectly
system.cpu.iew.wb_consumers                  22454273                       # num instructions consuming a value
system.cpu.iew.wb_count                      19737240                       # cumulative count of insts written-back
system.cpu.iew.wb_fanout                     0.609084                       # average fanout of values written-back
system.cpu.iew.wb_producers                  13676531                       # num instructions producing a value
system.cpu.iew.wb_rate                       1.848380                       # insts written-back per cycle
system.cpu.iew.wb_sent                       19760863                       # cumulative count of insts sent to commit
system.cpu.int_regfile_reads                 30682042                       # number of integer regfile reads
system.cpu.int_regfile_writes                15797441                       # number of integer regfile writes
system.cpu.ipc                               0.936494                       # IPC: Instructions Per Cycle
system.cpu.ipc_total                         0.936494                       # IPC: Total IPC of All Threads
system.cpu.iq.FU_type_0::No_OpClass            196451      0.99%      0.99% # Type of FU issued
system.cpu.iq.FU_type_0::IntAlu              15220663     76.49%     77.47% # Type of FU issued
system.cpu.iq.FU_type_0::IntMult                86168      0.43%     77.91% # Type of FU issued
system.cpu.iq.FU_type_0::IntDiv                117632      0.59%     78.50% # Type of FU issued
system.cpu.iq.FU_type_0::FloatAdd               42766      0.21%     78.71% # Type of FU issued
system.cpu.iq.FU_type_0::FloatCmp                   0      0.00%     78.71% # Type of FU issued
system.cpu.iq.FU_type_0::FloatCvt                  32      0.00%     78.71% # Type of FU issued
system.cpu.iq.FU_type_0::FloatMult                  0      0.00%     78.71% # Type of FU issued
system.cpu.iq.FU_type_0::FloatMultAcc               0      0.00%     78.71% # Type of FU issued
system.cpu.iq.FU_type_0::FloatDiv                   0      0.00%     78.71% # Type of FU issued
system.cpu.iq.FU_type_0::FloatMisc                  0      0.00%     78.71% # Type of FU issued
system.cpu.iq.FU_type_0::FloatSqrt                  0      0.00%     78.71% # Type of FU issued
system.cpu.iq.FU_type_0::SimdAdd                  465      0.00%     78.71% # Type of FU issued
system.cpu.iq.FU_type_0::SimdAddAcc                 0      0.00%     78.71% # Type of FU issued
system.cpu.iq.FU_type_0::SimdAlu                22709      0.11%     78.83% # Type of FU issued
system.cpu.iq.FU_type_0::SimdCmp                   20      0.00%     78.83% # Type of FU issued
system.cpu.iq.FU_type_0::SimdCvt                33119      0.17%     79.00% # Type of FU issued
system.cpu.iq.FU_type_0::SimdMisc              121452      0.61%     79.61% # Type of FU issued
system.cpu.iq.FU_type_0::SimdMult                   0      0.00%     79.61% # Type of FU issued
system.cpu.iq.FU_type_0::SimdMultAcc                0      0.00%     79.61% # Type of FU issued
system.cpu.iq.FU_type_0::SimdShift                295      0.00%     79.61% # Type of FU issued
system.cpu.iq.FU_type_0::SimdShiftAcc               0      0.00%     79.61% # Type of FU issued
system.cpu.iq.FU_type_0::SimdDiv                    0      0.00%     79.61% # Type of FU issued
system.cpu.iq.FU_type_0::SimdSqrt                   0      0.00%     79.61% # Type of FU issued
system.cpu.iq.FU_type_0::SimdFloatAdd               0      0.00%     79.61% # Type of FU issued
system.cpu.iq.FU_type_0::SimdFloatAlu               0      0.00%     79.61% # Type of FU issued
system.cpu.iq.FU_type_0::SimdFloatCmp               0      0.00%     79.61% # Type of FU issued
system.cpu.iq.FU_type_0::SimdFloatCvt               4      0.00%     79.61% # Type of FU issued
system.cpu.iq.FU_type_0::SimdFloatDiv               0      0.00%     79.61% # Type of FU issued
system.cpu.iq.FU_type_0::SimdFloatMisc              0      0.00%     79.61% # Type of FU issued
system.cpu.iq.FU_type_0::SimdFloatMult              2      0.00%     79.61% # Type of FU issued
system.cpu.iq.FU_type_0::SimdFloatMultAcc            0      0.00%     79.61% # Type of FU issued
system.cpu.iq.FU_type_0::SimdFloatSqrt              0      0.00%     79.61% # Type of FU issued
system.cpu.iq.FU_type_0::SimdReduceAdd              0      0.00%     79.61% # Type of FU issued
system.cpu.iq.FU_type_0::SimdReduceAlu              0      0.00%     79.61% # Type of FU issued
system.cpu.iq.FU_type_0::SimdReduceCmp              0      0.00%     79.61% # Type of FU issued
system.cpu.iq.FU_type_0::SimdFloatReduceAdd            0      0.00%     79.61% # Type of FU issued
system.cpu.iq.FU_type_0::SimdFloatReduceCmp            0      0.00%     79.61% # Type of FU issued
system.cpu.iq.FU_type_0::SimdAes                    0      0.00%     79.61% # Type of FU issued
system.cpu.iq.FU_type_0::SimdAesMix                 0      0.00%     79.61% # Type of FU issued
system.cpu.iq.FU_type_0::SimdSha1Hash               0      0.00%     79.61% # Type of FU issued
system.cpu.iq.FU_type_0::SimdSha1Hash2              0      0.00%     79.61% # Type of FU issued
system.cpu.iq.FU_type_0::SimdSha256Hash             0      0.00%     79.61% # Type of FU issued
system.cpu.iq.FU_type_0::SimdSha256Hash2            0      0.00%     79.61% # Type of FU issued
system.cpu.iq.FU_type_0::SimdShaSigma2              0      0.00%     79.61% # Type of FU issued
system.cpu.iq.FU_type_0::SimdShaSigma3              0      0.00%     79.61% # Type of FU issued
system.cpu.iq.FU_type_0::SimdPredAlu                0      0.00%     79.61% # Type of FU issued
system.cpu.iq.FU_type_0::MemRead              2307871     11.60%     91.20% # Type of FU issued
system.cpu.iq.FU_type_0::MemWrite             1511017      7.59%     98.80% # Type of FU issued
system.cpu.iq.FU_type_0::FloatMemRead           89756      0.45%     99.25% # Type of FU issued
system.cpu.iq.FU_type_0::FloatMemWrite         149453      0.75%    100.00% # Type of FU issued
system.cpu.iq.FU_type_0::IprAccess                  0      0.00%    100.00% # Type of FU issued
system.cpu.iq.FU_type_0::InstPrefetch               0      0.00%    100.00% # Type of FU issued
system.cpu.iq.FU_type_0::total               19899875                       # Type of FU issued
system.cpu.iq.fp_alu_accesses                  498885                       # Number of floating point alu accesses
system.cpu.iq.fp_inst_queue_reads              985935                       # Number of floating instruction queue reads
system.cpu.iq.fp_inst_queue_wakeup_accesses       469655                       # Number of floating instruction queue wakeup accesses
system.cpu.iq.fp_inst_queue_writes             594395                       # Number of floating instruction queue writes
system.cpu.iq.fu_busy_cnt                      291775                       # FU busy when requested
system.cpu.iq.fu_busy_rate                   0.014662                       # FU busy rate (busy events/executed inst)
system.cpu.iq.fu_full::No_OpClass                   0      0.00%      0.00% # attempts to use FU when none available
system.cpu.iq.fu_full::IntAlu                  240447     82.41%     82.41% # attempts to use FU when none available
system.cpu.iq.fu_full::IntMult                      0      0.00%     82.41% # attempts to use FU when none available
system.cpu.iq.fu_full::IntDiv                       0      0.00%     82.41% # attempts to use FU when none available
system.cpu.iq.fu_full::FloatAdd                     0      0.00%     82.41% # attempts to use FU when none available
system.cpu.iq.fu_full::FloatCmp                     0      0.00%     82.41% # attempts to use FU when none available
system.cpu.iq.fu_full::FloatCvt                     0      0.00%     82.41% # attempts to use FU when none available
system.cpu.iq.fu_full::FloatMult                    0      0.00%     82.41% # attempts to use FU when none available
system.cpu.iq.fu_full::FloatMultAcc                 0      0.00%     82.41% # attempts to use FU when none available
system.cpu.iq.fu_full::FloatDiv                     0      0.00%     82.41% # attempts to use FU when none available
system.cpu.iq.fu_full::FloatMisc                    0      0.00%     82.41% # attempts to use FU when none available
system.cpu.iq.fu_full::FloatSqrt                    0      0.00%     82.41% # attempts to use FU when none available
system.cpu.iq.fu_full::SimdAdd                      0      0.00%     82.41% # attempts to use FU when none available
system.cpu.iq.fu_full::SimdAddAcc                   0      0.00%     82.41% # attempts to use FU when none available
system.cpu.iq.fu_full::SimdAlu                     17      0.01%     82.41% # attempts to use FU when none available
system.cpu.iq.fu_full::SimdCmp                      2      0.00%     82.41% # attempts to use FU when none available
system.cpu.iq.fu_full::SimdCvt                   1052      0.36%     82.78% # attempts to use FU when none available
system.cpu.iq.fu_full::SimdMisc                   198      0.07%     82.84% # attempts to use FU when none available
system.cpu.iq.fu_full::SimdMult                     0      0.00%     82.84% # attempts to use FU when none available
system.cpu.iq.fu_full::SimdMultAcc                  0      0.00%     82.84% # attempts to use FU when none available
system.cpu.iq.fu_full::SimdShift                    0      0.00%     82.84% # attempts to use FU when none available
system.cpu.iq.fu_full::SimdShiftAcc                 0      0.00%     82.84% # attempts to use FU when none available
system.cpu.iq.fu_full::SimdDiv                      0      0.00%     82.84% # attempts to use FU when none available
system.cpu.iq.fu_full::SimdSqrt                     0      0.00%     82.84% # attempts to use FU when none available
system.cpu.iq.fu_full::SimdFloatAdd                 0      0.00%     82.84% # attempts to use FU when none available
system.cpu.iq.fu_full::SimdFloatAlu                 0      0.00%     82.84% # attempts to use FU when none available
system.cpu.iq.fu_full::SimdFloatCmp                 0      0.00%     82.84% # attempts to use FU when none available
system.cpu.iq.fu_full::SimdFloatCvt                 0      0.00%     82.84% # attempts to use FU when none available
system.cpu.iq.fu_full::SimdFloatDiv                 0      0.00%     82.84% # attempts to use FU when none available
system.cpu.iq.fu_full::SimdFloatMisc                0      0.00%     82.84% # attempts to use FU when none available
system.cpu.iq.fu_full::SimdFloatMult                0      0.00%     82.84% # attempts to use FU when none available
system.cpu.iq.fu_full::SimdFloatMultAcc             0      0.00%     82.84% # attempts to use FU when none available
system.cpu.iq.fu_full::SimdFloatSqrt                0      0.00%     82.84% # attempts to use FU when none available
system.cpu.iq.fu_full::SimdReduceAdd                0      0.00%     82.84% # attempts to use FU when none available
system.cpu.iq.fu_full::SimdReduceAlu                0      0.00%     82.84% # attempts to use FU when none available
system.cpu.iq.fu_full::SimdReduceCmp                0      0.00%     82.84% # attempts to use FU when none available
system.cpu.iq.fu_full::SimdFloatReduceAdd            0      0.00%     82.84% # attempts to use FU when none available
system.cpu.iq.fu_full::SimdFloatReduceCmp            0      0.00%     82.84% # attempts to use FU when none available
system.cpu.iq.fu_full::SimdAes                      0      0.00%     82.84% # attempts to use FU when none available
system.cpu.iq.fu_full::SimdAesMix                   0      0.00%     82.84% # attempts to use FU when none available
system.cpu.iq.fu_full::SimdSha1Hash                 0      0.00%     82.84% # attempts to use FU when none available
system.cpu.iq.fu_full::SimdSha1Hash2                0      0.00%     82.84% # attempts to use FU when none available
system.cpu.iq.fu_full::SimdSha256Hash               0      0.00%     82.84% # attempts to use FU when none available
system.cpu.iq.fu_full::SimdSha256Hash2              0      0.00%     82.84% # attempts to use FU when none available
system.cpu.iq.fu_full::SimdShaSigma2                0      0.00%     82.84% # attempts to use FU when none available
system.cpu.iq.fu_full::SimdShaSigma3                0      0.00%     82.84% # attempts to use FU when none available
system.cpu.iq.fu_full::SimdPredAlu                  0      0.00%     82.84% # attempts to use FU when none available
system.cpu.iq.fu_full::MemRead                  23066      7.91%     90.75% # attempts to use FU when none available
system.cpu.iq.fu_full::MemWrite                 16146      5.53%     96.28% # attempts to use FU when none available
system.cpu.iq.fu_full::FloatMemRead               364      0.12%     96.41% # attempts to use FU when none available
system.cpu.iq.fu_full::FloatMemWrite            10483      3.59%    100.00% # attempts to use FU when none available
system.cpu.iq.fu_full::IprAccess                    0      0.00%    100.00% # attempts to use FU when none available
system.cpu.iq.fu_full::InstPrefetch                 0      0.00%    100.00% # attempts to use FU when none available
system.cpu.iq.int_alu_accesses               19496314                       # Number of integer alu accesses
system.cpu.iq.int_inst_queue_reads           49708211                       # Number of integer instruction queue reads
system.cpu.iq.int_inst_queue_wakeup_accesses     19267585                       # Number of integer instruction queue wakeup accesses
system.cpu.iq.int_inst_queue_writes          21164490                       # Number of integer instruction queue writes
system.cpu.iq.iqInstsAdded                   20302735                       # Number of instructions added to the IQ (excludes non-spec)
system.cpu.iq.iqInstsIssued                  19899875                       # Number of instructions issued
system.cpu.iq.iqNonSpecInstsAdded                 179                       # Number of non-speculative instructions added to the IQ
system.cpu.iq.iqSquashedInstsExamined         1455769                       # Number of squashed instructions iterated over during squash; mainly for profiling
system.cpu.iq.iqSquashedInstsIssued              9610                       # Number of squashed instructions issued
system.cpu.iq.iqSquashedNonSpecRemoved            113                       # Number of squashed non-spec instructions that were removed
system.cpu.iq.iqSquashedOperandsExamined      1902679                       # Number of squashed operands that are examined and possibly removed from graph
system.cpu.iq.issued_per_cycle::samples      10593012                       # Number of insts issued each cycle
system.cpu.iq.issued_per_cycle::mean         1.878585                       # Number of insts issued each cycle
system.cpu.iq.issued_per_cycle::stdev        2.363624                       # Number of insts issued each cycle
system.cpu.iq.issued_per_cycle::underflows            0      0.00%      0.00% # Number of insts issued each cycle
system.cpu.iq.issued_per_cycle::0             5327224     50.29%     50.29% # Number of insts issued each cycle
system.cpu.iq.issued_per_cycle::1              782395      7.39%     57.68% # Number of insts issued each cycle
system.cpu.iq.issued_per_cycle::2              902107      8.52%     66.19% # Number of insts issued each cycle
system.cpu.iq.issued_per_cycle::3              935853      8.83%     75.03% # Number of insts issued each cycle
system.cpu.iq.issued_per_cycle::4              774527      7.31%     82.34% # Number of insts issued each cycle
system.cpu.iq.issued_per_cycle::5              608886      5.75%     88.09% # Number of insts issued each cycle
system.cpu.iq.issued_per_cycle::6              680643      6.43%     94.51% # Number of insts issued each cycle
system.cpu.iq.issued_per_cycle::7              371705      3.51%     98.02% # Number of insts issued each cycle
system.cpu.iq.issued_per_cycle::8              209672      1.98%    100.00% # Number of insts issued each cycle
system.cpu.iq.issued_per_cycle::overflows            0      0.00%    100.00% # Number of insts issued each cycle
system.cpu.iq.issued_per_cycle::min_value            0                       # Number of insts issued each cycle
system.cpu.iq.issued_per_cycle::max_value            8                       # Number of insts issued each cycle
system.cpu.iq.issued_per_cycle::total        10593012                       # Number of insts issued each cycle
system.cpu.iq.rate                           1.863611                       # Inst issue rate
system.cpu.iq.vec_alu_accesses                      0                       # Number of vector alu accesses
system.cpu.iq.vec_inst_queue_reads                  0                       # Number of vector instruction queue reads
system.cpu.iq.vec_inst_queue_wakeup_accesses            0                       # Number of vector instruction queue wakeup accesses
system.cpu.iq.vec_inst_queue_writes                 0                       # Number of vector instruction queue writes
system.cpu.memDep0.conflictingLoads             69886                       # Number of conflicting loads.
system.cpu.memDep0.conflictingStores            17007                       # Number of conflicting stores.
system.cpu.memDep0.insertedLoads              2415421                       # Number of loads inserted to the mem dependence unit.
system.cpu.memDep0.insertedStores             1688158                       # Number of stores inserted to the mem dependence unit.
system.cpu.misc_regfile_reads                 8348374                       # number of misc regfile reads
system.cpu.misc_regfile_writes                     18                       # number of misc regfile writes
system.cpu.numCycles                         10678127                       # number of cpu cycles simulated
system.cpu.numWorkItemsCompleted                    0                       # number of work items this cpu completed
system.cpu.numWorkItemsStarted                      0                       # number of work items this cpu started
system.cpu.timesIdled                             894                       # Number of times that the entire CPU went into an idle state and unscheduled itself
system.cpu.workload.numSyscalls                    54                       # Number of system calls
system.membus.snoop_filter.hit_multi_requests            0                       # Number of requests hitting in the snoop filter with multiple (>1) holders of the requested data.
system.membus.snoop_filter.hit_multi_snoops            0                       # Number of snoops hitting in the snoop filter with multiple (>1) holders of the requested data.
system.membus.snoop_filter.hit_single_requests        30275                       # Number of requests hitting in the snoop filter with a single holder of the requested data.
system.membus.snoop_filter.hit_single_snoops            0                       # Number of snoops hitting in the snoop filter with a single holder of the requested data.
system.membus.snoop_filter.tot_requests         69271                       # Total number of requests made to the snoop filter.
system.membus.snoop_filter.tot_snoops               0                       # Total number of snoops made to the snoop filter.
system.tol2bus.snoop_filter.hit_multi_requests           17                       # Number of requests hitting in the snoop filter with multiple (>1) holders of the requested data.
system.tol2bus.snoop_filter.hit_multi_snoops            2                       # Number of snoops hitting in the snoop filter with multiple (>1) holders of the requested data.
system.tol2bus.snoop_filter.hit_single_requests        60872                       # Number of requests hitting in the snoop filter with a single holder of the requested data.
system.tol2bus.snoop_filter.hit_single_snoops          578                       # Number of snoops hitting in the snoop filter with a single holder of the requested data.
system.tol2bus.snoop_filter.tot_requests       122766                       # Total number of requests made to the snoop filter.
system.tol2bus.snoop_filter.tot_snoops            580                       # Total number of snoops made to the snoop filter.
system.clk_domain.clock                           250                       # Clock period in ticks
system.cpu.branchPred.lookups                 2373007                       # Number of BP lookups
system.cpu.branchPred.condPredicted           1921968                       # Number of conditional branches predicted
system.cpu.branchPred.condIncorrect             56606                       # Number of conditional branches incorrect
system.cpu.branchPred.BTBLookups               995190                       # Number of BTB lookups
system.cpu.branchPred.BTBHits                  929920                       # Number of BTB hits
system.cpu.branchPred.BTBHitPct             93.441453                       # BTB Hit Percentage
system.cpu.branchPred.RASUsed                  123049                       # Number of times the RAS was used to get a target.
system.cpu.branchPred.RASIncorrect                 10                       # Number of incorrect RAS predictions.
system.cpu.branchPred.indirectLookups           54285                       # Number of indirect predictor lookups.
system.cpu.branchPred.indirectHits              50685                       # Number of indirect target hits.
system.cpu.branchPred.indirectMisses             3600                       # Number of indirect misses.
system.cpu.branchPred.indirectMispredicted          454                       # Number of mispredicted indirect branches.
system.cpu.commit.commitSquashedInsts         1446961                       # The number of squashed insts skipped by commit
system.cpu.commit.commitNonSpecStalls              66                       # The number of times commit has been forced to stall to communicate backwards
system.cpu.commit.branchMispredicts             45674                       # The number of times a branch was mispredicted
system.cpu.commit.numCommittedDist::samples     10379887                       # Number of insts commited each cycle
system.cpu.commit.numCommittedDist::mean     1.815736                       # Number of insts commited each cycle
system.cpu.commit.numCommittedDist::stdev     2.660879                       # Number of insts commited each cycle
system.cpu.commit.numCommittedDist::underflows            0      0.00%      0.00% # Number of insts commited each cycle
system.cpu.commit.numCommittedDist::0         5709994     55.01%     55.01% # Number of insts commited each cycle
system.cpu.commit.numCommittedDist::1         1080016     10.40%     65.42% # Number of insts commited each cycle
system.cpu.commit.numCommittedDist::2          554383      5.34%     70.76% # Number of insts commited each cycle
system.cpu.commit.numCommittedDist::3          934866      9.01%     79.76% # Number of insts commited each cycle
system.cpu.commit.numCommittedDist::4          243899      2.35%     82.11% # Number of insts commited each cycle
system.cpu.commit.numCommittedDist::5          372714      3.59%     85.70% # Number of insts commited each cycle
system.cpu.commit.numCommittedDist::6          334170      3.22%     88.92% # Number of insts commited each cycle
system.cpu.commit.numCommittedDist::7          189193      1.82%     90.75% # Number of insts commited each cycle
system.cpu.commit.numCommittedDist::8          960652      9.25%    100.00% # Number of insts commited each cycle
system.cpu.commit.numCommittedDist::overflows            0      0.00%    100.00% # Number of insts commited each cycle
system.cpu.commit.numCommittedDist::min_value            0                       # Number of insts commited each cycle
system.cpu.commit.numCommittedDist::max_value            8                       # Number of insts commited each cycle
system.cpu.commit.numCommittedDist::total     10379887                       # Number of insts commited each cycle
system.cpu.commit.instsCommitted             10000001                       # Number of instructions committed
system.cpu.commit.opsCommitted               18847133                       # Number of ops (including micro ops) committed
system.cpu.commit.memRefs                     3855806                       # Number of memory references committed
system.cpu.commit.loads                       2239682                       # Number of loads committed
system.cpu.commit.amos                              0                       # Number of atomic instructions committed
system.cpu.commit.membars                          32                       # Number of memory barriers committed
system.cpu.commit.branches                    2096089                       # Number of branches committed
system.cpu.commit.vector                            0                       # Number of committed Vector instructions.
system.cpu.commit.floating                     432909                       # Number of committed floating point instructions.
system.cpu.commit.integer                    18491276                       # Number of committed integer instructions.
system.cpu.commit.functionCalls                105987                       # Number of function calls committed.
system.cpu.commit.committedInstType_0::No_OpClass       186599      0.99%      0.99% # Class of committed instruction
system.cpu.commit.committedInstType_0::IntAlu     14415807     76.49%     77.48% # Class of committed instruction
system.cpu.commit.committedInstType_0::IntMult        83587      0.44%     77.92% # Class of committed instruction
system.cpu.commit.committedInstType_0::IntDiv       113626      0.60%     78.52% # Class of committed instruction
system.cpu.commit.committedInstType_0::FloatAdd        42444      0.23%     78.75% # Class of committed instruction
system.cpu.commit.committedInstType_0::FloatCmp            0      0.00%     78.75% # Class of committed instruction
system.cpu.commit.committedInstType_0::FloatCvt           32      0.00%     78.75% # Class of committed instruction
system.cpu.commit.committedInstType_0::FloatMult            0      0.00%     78.75% # Class of committed instruction
system.cpu.commit.committedInstType_0::FloatMultAcc            0      0.00%     78.75% # Class of committed instruction
system.cpu.commit.committedInstType_0::FloatDiv            0      0.00%     78.75% # Class of committed instruction
system.cpu.commit.committedInstType_0::FloatMisc            0      0.00%     78.75% # Class of committed instruction
system.cpu.commit.committedInstType_0::FloatSqrt            0      0.00%     78.75% # Class of committed instruction
system.cpu.commit.committedInstType_0::SimdAdd          398      0.00%     78.75% # Class of committed instruction
system.cpu.commit.committedInstType_0::SimdAddAcc            0      0.00%     78.75% # Class of committed instruction
system.cpu.commit.committedInstType_0::SimdAlu        11366      0.06%     78.81% # Class of committed instruction
system.cpu.commit.committedInstType_0::SimdCmp           20      0.00%     78.81% # Class of committed instruction
system.cpu.commit.committedInstType_0::SimdCvt        23970      0.13%     78.94% # Class of committed instruction
system.cpu.commit.committedInstType_0::SimdMisc       113367      0.60%     79.54% # Class of committed instruction
system.cpu.commit.committedInstType_0::SimdMult            0      0.00%     79.54% # Class of committed instruction
system.cpu.commit.committedInstType_0::SimdMultAcc            0      0.00%     79.54% # Class of committed instruction
system.cpu.commit.committedInstType_0::SimdShift          105      0.00%     79.54% # Class of committed instruction
system.cpu.commit.committedInstType_0::SimdShiftAcc            0      0.00%     79.54% # Class of committed instruction
system.cpu.commit.committedInstType_0::SimdDiv            0      0.00%     79.54% # Class of committed instruction
system.cpu.commit.committedInstType_0::SimdSqrt            0      0.00%     79.54% # Class of committed instruction
system.cpu.commit.committedInstType_0::SimdFloatAdd            0      0.00%     79.54% # Class of committed instruction
system.cpu.commit.committedInstType_0::SimdFloatAlu            0      0.00%     79.54% # Class of committed instruction
system.cpu.commit.committedInstType_0::SimdFloatCmp            0      0.00%     79.54% # Class of committed instruction
system.cpu.commit.committedInstType_0::SimdFloatCvt            4      0.00%     79.54% # Class of committed instruction
system.cpu.commit.committedInstType_0::SimdFloatDiv            0      0.00%     79.54% # Class of committed instruction
system.cpu.commit.committedInstType_0::SimdFloatMisc            0      0.00%     79.54% # Class of committed instruction
system.cpu.commit.committedInstType_0::SimdFloatMult            2      0.00%     79.54% # Class of committed instruction
system.cpu.commit.committedInstType_0::SimdFloatMultAcc            0      0.00%     79.54% # Class of committed instruction
system.cpu.commit.committedInstType_0::SimdFloatSqrt            0      0.00%     79.54% # Class of committed instruction
system.cpu.commit.committedInstType_0::SimdReduceAdd            0      0.00%     79.54% # Class of committed instruction
system.cpu.commit.committedInstType_0::SimdReduceAlu            0      0.00%     79.54% # Class of committed instruction
system.cpu.commit.committedInstType_0::SimdReduceCmp            0      0.00%     79.54% # Class of committed instruction
system.cpu.commit.committedInstType_0::SimdFloatReduceAdd            0      0.00%     79.54% # Class of committed instruction
system.cpu.commit.committedInstType_0::SimdFloatReduceCmp            0      0.00%     79.54% # Class of committed instruction
system.cpu.commit.committedInstType_0::SimdAes            0      0.00%     79.54% # Class of committed instruction
system.cpu.commit.committedInstType_0::SimdAesMix            0      0.00%     79.54% # Class of committed instruction
system.cpu.commit.committedInstType_0::SimdSha1Hash            0      0.00%     79.54% # Class of committed instruction
system.cpu.commit.committedInstType_0::SimdSha1Hash2            0      0.00%     79.54% # Class of committed instruction
system.cpu.commit.committedInstType_0::SimdSha256Hash            0      0.00%     79.54% # Class of committed instruction
system.cpu.commit.committedInstType_0::SimdSha256Hash2            0      0.00%     79.54% # Class of committed instruction
system.cpu.commit.committedInstType_0::SimdShaSigma2            0      0.00%     79.54% # Class of committed instruction
system.cpu.commit.committedInstType_0::SimdShaSigma3            0      0.00%     79.54% # Class of committed instruction
system.cpu.commit.committedInstType_0::SimdPredAlu            0      0.00%     79.54% # Class of committed instruction
system.cpu.commit.committedInstType_0::MemRead      2173523     11.53%     91.07% # Class of committed instruction
system.cpu.commit.committedInstType_0::MemWrite      1467717      7.79%     98.86% # Class of committed instruction
system.cpu.commit.committedInstType_0::FloatMemRead        66159      0.35%     99.21% # Class of committed instruction
system.cpu.commit.committedInstType_0::FloatMemWrite       148407      0.79%    100.00% # Class of committed instruction
system.cpu.commit.committedInstType_0::IprAccess            0      0.00%    100.00% # Class of committed instruction
system.cpu.commit.committedInstType_0::InstPrefetch            0      0.00%    100.00% # Class of committed instruction
system.cpu.commit.committedInstType_0::total     18847133                       # Class of committed instruction
system.cpu.commit.commitEligibleSamples        960652                       # number cycles where commit BW limit reached
system.cpu.dcache.demand_hits::.cpu.data      3455873                       # number of demand (read+write) hits
system.cpu.dcache.demand_hits::total          3455873                       # number of demand (read+write) hits
system.cpu.dcache.overall_hits::.cpu.data      3455873                       # number of overall hits
system.cpu.dcache.overall_hits::total         3455873                       # number of overall hits
system.cpu.dcache.demand_misses::.cpu.data        69680                       # number of demand (read+write) misses
system.cpu.dcache.demand_misses::total          69680                       # number of demand (read+write) misses
system.cpu.dcache.overall_misses::.cpu.data        69680                       # number of overall misses
system.cpu.dcache.overall_misses::total         69680                       # number of overall misses
system.cpu.dcache.demand_miss_latency::.cpu.data   4433070998                       # number of demand (read+write) miss cycles
system.cpu.dcache.demand_miss_latency::total   4433070998                       # number of demand (read+write) miss cycles
system.cpu.dcache.overall_miss_latency::.cpu.data   4433070998                       # number of overall miss cycles
system.cpu.dcache.overall_miss_latency::total   4433070998                       # number of overall miss cycles
system.cpu.dcache.demand_accesses::.cpu.data      3525553                       # number of demand (read+write) accesses
system.cpu.dcache.demand_accesses::total      3525553                       # number of demand (read+write) accesses
system.cpu.dcache.overall_accesses::.cpu.data      3525553                       # number of overall (read+write) accesses
system.cpu.dcache.overall_accesses::total      3525553                       # number of overall (read+write) accesses
system.cpu.dcache.demand_miss_rate::.cpu.data     0.019764                       # miss rate for demand accesses
system.cpu.dcache.demand_miss_rate::total     0.019764                       # miss rate for demand accesses
system.cpu.dcache.overall_miss_rate::.cpu.data     0.019764                       # miss rate for overall accesses
system.cpu.dcache.overall_miss_rate::total     0.019764                       # miss rate for overall accesses
system.cpu.dcache.demand_avg_miss_latency::.cpu.data 63620.421900                       # average overall miss latency
system.cpu.dcache.demand_avg_miss_latency::total 63620.421900                       # average overall miss latency
system.cpu.dcache.overall_avg_miss_latency::.cpu.data 63620.421900                       # average overall miss latency
system.cpu.dcache.overall_avg_miss_latency::total 63620.421900                       # average overall miss latency
system.cpu.dcache.blocked_cycles::no_mshrs        17273                       # number of cycles access was blocked
system.cpu.dcache.blocked_cycles::no_targets            0                       # number of cycles access was blocked
system.cpu.dcache.blocked::no_mshrs               401                       # number of cycles access was blocked
system.cpu.dcache.blocked::no_targets               0                       # number of cycles access was blocked
system.cpu.dcache.avg_blocked_cycles::no_mshrs    43.074813                       # average number of cycles each access was blocked
system.cpu.dcache.avg_blocked_cycles::no_targets          nan                       # average number of cycles each access was blocked
system.cpu.dcache.writebacks::.writebacks        40475                       # number of writebacks
system.cpu.dcache.writebacks::total             40475                       # number of writebacks
system.cpu.dcache.demand_mshr_hits::.cpu.data        25020                       # number of demand (read+write) MSHR hits
system.cpu.dcache.demand_mshr_hits::total        25020                       # number of demand (read+write) MSHR hits
system.cpu.dcache.overall_mshr_hits::.cpu.data        25020                       # number of overall MSHR hits
system.cpu.dcache.overall_mshr_hits::total        25020                       # number of overall MSHR hits
system.cpu.dcache.demand_mshr_misses::.cpu.data        44660                       # number of demand (read+write) MSHR misses
system.cpu.dcache.demand_mshr_misses::total        44660                       # number of demand (read+write) MSHR misses
system.cpu.dcache.overall_mshr_misses::.cpu.data        44660                       # number of overall MSHR misses
system.cpu.dcache.overall_mshr_misses::total        44660                       # number of overall MSHR misses
system.cpu.dcache.demand_mshr_miss_latency::.cpu.data   3137271998                       # number of demand (read+write) MSHR miss cycles
system.cpu.dcache.demand_mshr_miss_latency::total   3137271998                       # number of demand (read+write) MSHR miss cycles
system.cpu.dcache.overall_mshr_miss_latency::.cpu.data   3137271998                       # number of overall MSHR miss cycles
system.cpu.dcache.overall_mshr_miss_latency::total   3137271998                       # number of overall MSHR miss cycles
system.cpu.dcache.demand_mshr_miss_rate::.cpu.data     0.012668                       # mshr miss rate for demand accesses
system.cpu.dcache.demand_mshr_miss_rate::total     0.012668                       # mshr miss rate for demand accesses
system.cpu.dcache.overall_mshr_miss_rate::.cpu.data     0.012668                       # mshr miss rate for overall accesses
system.cpu.dcache.overall_mshr_miss_rate::total     0.012668                       # mshr miss rate for overall accesses
system.cpu.dcache.demand_avg_mshr_miss_latency::.cpu.data 70247.917555                       # average overall mshr miss latency
system.cpu.dcache.demand_avg_mshr_miss_latency::total 70247.917555                       # average overall mshr miss latency
system.cpu.dcache.overall_avg_mshr_miss_latency::.cpu.data 70247.917555                       # average overall mshr miss latency
system.cpu.dcache.overall_avg_mshr_miss_latency::total 70247.917555                       # average overall mshr miss latency
system.cpu.dcache.replacements                  44146                       # number of replacements
system.cpu.dcache.ReadReq_hits::.cpu.data      1874741                       # number of ReadReq hits
system.cpu.dcache.ReadReq_hits::total         1874741                       # number of ReadReq hits
system.cpu.dcache.ReadReq_misses::.cpu.data        34686                       # number of ReadReq misses
system.cpu.dcache.ReadReq_misses::total         34686                       # number of ReadReq misses
system.cpu.dcache.ReadReq_miss_latency::.cpu.data   1923772000                       # number of ReadReq miss cycles
system.cpu.dcache.ReadReq_miss_latency::total   1923772000                       # number of ReadReq miss cycles
system.cpu.dcache.ReadReq_accesses::.cpu.data      1909427                       # number of ReadReq accesses(hits+misses)
system.cpu.dcache.ReadReq_accesses::total      1909427                       # number of ReadReq accesses(hits+misses)
system.cpu.dcache.ReadReq_miss_rate::.cpu.data     0.018166                       # miss rate for ReadReq accesses
system.cpu.dcache.ReadReq_miss_rate::total     0.018166                       # miss rate for ReadReq accesses
system.cpu.dcache.ReadReq_avg_miss_latency::.cpu.data 55462.492072                       # average ReadReq miss latency
system.cpu.dcache.ReadReq_avg_miss_latency::total 55462.492072                       # average ReadReq miss latency
system.cpu.dcache.ReadReq_mshr_hits::.cpu.data        22473                       # number of ReadReq MSHR hits
system.cpu.dcache.ReadReq_mshr_hits::total        22473                       # number of ReadReq MSHR hits
system.cpu.dcache.ReadReq_mshr_misses::.cpu.data        12213                       # number of ReadReq MSHR misses
system.cpu.dcache.ReadReq_mshr_misses::total        12213                       # number of ReadReq MSHR misses
system.cpu.dcache.ReadReq_mshr_miss_latency::.cpu.data    708440500                       # number of ReadReq MSHR miss cycles
system.cpu.dcache.ReadReq_mshr_miss_latency::total    708440500                       # number of ReadReq MSHR miss cycles
system.cpu.dcache.ReadReq_mshr_miss_rate::.cpu.data     0.006396                       # mshr miss rate for ReadReq accesses
system.cpu.dcache.ReadReq_mshr_miss_rate::total     0.006396                       # mshr miss rate for ReadReq accesses
system.cpu.dcache.ReadReq_avg_mshr_miss_latency::.cpu.data 58007.082617                       # average ReadReq mshr miss latency
system.cpu.dcache.ReadReq_avg_mshr_miss_latency::total 58007.082617                       # average ReadReq mshr miss latency
system.cpu.dcache.WriteReq_hits::.cpu.data      1581132                       # number of WriteReq hits
system.cpu.dcache.WriteReq_hits::total        1581132                       # number of WriteReq hits
system.cpu.dcache.WriteReq_misses::.cpu.data        34994                       # number of WriteReq misses
system.cpu.dcache.WriteReq_misses::total        34994                       # number of WriteReq misses
system.cpu.dcache.WriteReq_miss_latency::.cpu.data   2509298998                       # number of WriteReq miss cycles
system.cpu.dcache.WriteReq_miss_latency::total   2509298998                       # number of WriteReq miss cycles
system.cpu.dcache.WriteReq_accesses::.cpu.data      1616126                       # number of WriteReq accesses(hits+misses)
system.cpu.dcache.WriteReq_accesses::total      1616126                       # number of WriteReq accesses(hits+misses)
system.cpu.dcache.WriteReq_miss_rate::.cpu.data     0.021653                       # miss rate for WriteReq accesses
system.cpu.dcache.WriteReq_miss_rate::total     0.021653                       # miss rate for WriteReq accesses
system.cpu.dcache.WriteReq_avg_miss_latency::.cpu.data 71706.549637                       # average WriteReq miss latency
system.cpu.dcache.WriteReq_avg_miss_latency::total 71706.549637                       # average WriteReq miss latency
system.cpu.dcache.WriteReq_mshr_hits::.cpu.data         2547                       # number of WriteReq MSHR hits
system.cpu.dcache.WriteReq_mshr_hits::total         2547                       # number of WriteReq MSHR hits
system.cpu.dcache.WriteReq_mshr_misses::.cpu.data        32447                       # number of WriteReq MSHR misses
system.cpu.dcache.WriteReq_mshr_misses::total        32447                       # number of WriteReq MSHR misses
system.cpu.dcache.WriteReq_mshr_miss_latency::.cpu.data   2428831498                       # number of WriteReq MSHR miss cycles
system.cpu.dcache.WriteReq_mshr_miss_latency::total   2428831498                       # number of WriteReq MSHR miss cycles
system.cpu.dcache.WriteReq_mshr_miss_rate::.cpu.data     0.020077                       # mshr miss rate for WriteReq accesses
system.cpu.dcache.WriteReq_mshr_miss_rate::total     0.020077                       # mshr miss rate for WriteReq accesses
system.cpu.dcache.WriteReq_avg_mshr_miss_latency::.cpu.data 74855.348661                       # average WriteReq mshr miss latency
system.cpu.dcache.WriteReq_avg_mshr_miss_latency::total 74855.348661                       # average WriteReq mshr miss latency
system.cpu.dcache.power_state.pwrStateResidencyTicks::UNDEFINED   5339063000                       # Cumulative time (in ticks) in various power states
system.cpu.dcache.tags.tagsinuse           509.304248                       # Cycle average of tags in use
system.cpu.dcache.tags.total_refs             3500533                       # Total number of references to valid blocks.
system.cpu.dcache.tags.sampled_refs             44658                       # Sample count of references to valid blocks.
system.cpu.dcache.tags.avg_refs             78.385351                       # Average number of references to valid blocks.
system.cpu.dcache.tags.warmup_cycle            163000                       # Cycle when the warmup percentage was hit.
system.cpu.dcache.tags.occ_blocks::.cpu.data   509.304248                       # Average occupied blocks per requestor
system.cpu.dcache.tags.occ_percent::.cpu.data     0.994735                       # Average percentage of cache occupancy
system.cpu.dcache.tags.occ_percent::total     0.994735                       # Average percentage of cache occupancy
system.cpu.dcache.tags.occ_task_id_blocks::1024          512                       # Occupied blocks per task id
system.cpu.dcache.tags.age_task_id_blocks_1024::0           74                       # Occupied blocks per task id
system.cpu.dcache.tags.age_task_id_blocks_1024::1          335                       # Occupied blocks per task id
system.cpu.dcache.tags.age_task_id_blocks_1024::2           75                       # Occupied blocks per task id
system.cpu.dcache.tags.age_task_id_blocks_1024::3           28                       # Occupied blocks per task id
system.cpu.dcache.tags.occ_task_id_percent::1024            1                       # Percentage of cache occupancy per task id
system.cpu.dcache.tags.tag_accesses           7095764                       # Number of tag accesses
system.cpu.dcache.tags.data_accesses          7095764                       # Number of data accesses
system.cpu.dcache.tags.power_state.pwrStateResidencyTicks::UNDEFINED   5339063000                       # Cumulative time (in ticks) in various power states
system.cpu.decode.idleCycles                  1995856                       # Number of cycles decode is idle
system.cpu.decode.blockedCycles               5270987                       # Number of cycles decode is blocked
system.cpu.decode.runCycles                   2987338                       # Number of cycles decode is running
system.cpu.decode.unblockCycles                292200                       # Number of cycles decode is unblocking
system.cpu.decode.squashCycles                  46631                       # Number of cycles decode is squashing
system.cpu.decode.branchResolved               911078                       # Number of times decode resolved a  branch
system.cpu.decode.branchMispred                 11155                       # Number of times decode detected a branch misprediction
system.cpu.decode.decodedInsts               20840012                       # Number of instructions handled by decode
system.cpu.decode.squashedInsts                 60678                       # Number of squashed instructions handled by decode
system.cpu.dtb.rdAccesses                     2378772                       # TLB accesses on read requests
system.cpu.dtb.wrAccesses                     1649793                       # TLB accesses on write requests
system.cpu.dtb.rdMisses                           647                       # TLB misses on read requests
system.cpu.dtb.wrMisses                         18312                       # TLB misses on write requests
system.cpu.dtb.walker.power_state.pwrStateResidencyTicks::UNDEFINED   5339063000                       # Cumulative time (in ticks) in various power states
system.cpu.dtb_walker_cache.blocked_cycles::no_mshrs            0                       # number of cycles access was blocked
system.cpu.dtb_walker_cache.blocked_cycles::no_targets            0                       # number of cycles access was blocked
system.cpu.dtb_walker_cache.blocked::no_mshrs            0                       # number of cycles access was blocked
system.cpu.dtb_walker_cache.blocked::no_targets            0                       # number of cycles access was blocked
system.cpu.dtb_walker_cache.avg_blocked_cycles::no_mshrs          nan                       # average number of cycles each access was blocked
system.cpu.dtb_walker_cache.avg_blocked_cycles::no_targets          nan                       # average number of cycles each access was blocked
system.cpu.dtb_walker_cache.replacements            0                       # number of replacements
system.cpu.dtb_walker_cache.power_state.pwrStateResidencyTicks::UNDEFINED   5339063000                       # Cumulative time (in ticks) in various power states
system.cpu.dtb_walker_cache.tags.tagsinuse            0                       # Cycle average of tags in use
system.cpu.dtb_walker_cache.tags.total_refs            0                       # Total number of references to valid blocks.
system.cpu.dtb_walker_cache.tags.sampled_refs            0                       # Sample count of references to valid blocks.
system.cpu.dtb_walker_cache.tags.avg_refs          nan                       # Average number of references to valid blocks.
system.cpu.dtb_walker_cache.tags.warmup_cycle            0                       # Cycle when the warmup percentage was hit.
system.cpu.dtb_walker_cache.tags.tag_accesses            0                       # Number of tag accesses
system.cpu.dtb_walker_cache.tags.data_accesses            0                       # Number of data accesses
system.cpu.dtb_walker_cache.tags.power_state.pwrStateResidencyTicks::UNDEFINED   5339063000                       # Cumulative time (in ticks) in various power states
system.cpu.fetch.icacheStallCycles            2215226                       # Number of cycles fetch is stalled on an Icache miss
system.cpu.fetch.insts                       11368118                       # Number of instructions fetch has processed
system.cpu.fetch.branches                     2373007                       # Number of branches that fetch encountered
system.cpu.fetch.predictedBranches            1103654                       # Number of branches that fetch has predicted taken
system.cpu.fetch.cycles                       8317912                       # Number of cycles fetch has run and was not squashing or blocked
system.cpu.fetch.squashCycles                  115536                       # Number of cycles fetch has spent squashing
system.cpu.fetch.miscStallCycles                  299                       # Number of cycles fetch has spent waiting on interrupts,or bad addresses, or out of MSHRs
system.cpu.fetch.pendingTrapStallCycles          1784                       # Number of stall cycles due to pending traps
system.cpu.fetch.pendingQuiesceStallCycles            9                       # Number of stall cycles due to pending quiesce instructions
system.cpu.fetch.icacheWaitRetryStallCycles           14                       # Number of stall cycles due to full MSHR
system.cpu.fetch.cacheLines                   1754880                       # Number of cache lines fetched
system.cpu.fetch.icacheSquashes                 17074                       # Number of outstanding Icache misses that were squashed
system.cpu.fetch.nisnDist::samples           10593012                       # Number of instructions fetched each cycle (Total)
system.cpu.fetch.nisnDist::mean              2.028185                       # Number of instructions fetched each cycle (Total)
system.cpu.fetch.nisnDist::stdev             3.170738                       # Number of instructions fetched each cycle (Total)
system.cpu.fetch.nisnDist::underflows               0      0.00%      0.00% # Number of instructions fetched each cycle (Total)
system.cpu.fetch.nisnDist::0                  6998339     66.07%     66.07% # Number of instructions fetched each cycle (Total)
system.cpu.fetch.nisnDist::1                   162629      1.54%     67.60% # Number of instructions fetched each cycle (Total)
system.cpu.fetch.nisnDist::2                   386399      3.65%     71.25% # Number of instructions fetched each cycle (Total)
system.cpu.fetch.nisnDist::3                   309479      2.92%     74.17% # Number of instructions fetched each cycle (Total)
system.cpu.fetch.nisnDist::4                   212344      2.00%     76.17% # Number of instructions fetched each cycle (Total)
system.cpu.fetch.nisnDist::5                   238580      2.25%     78.43% # Number of instructions fetched each cycle (Total)
system.cpu.fetch.nisnDist::6                   256838      2.42%     80.85% # Number of instructions fetched each cycle (Total)
system.cpu.fetch.nisnDist::7                   189809      1.79%     82.64% # Number of instructions fetched each cycle (Total)
system.cpu.fetch.nisnDist::8                  1838595     17.36%    100.00% # Number of instructions fetched each cycle (Total)
system.cpu.fetch.nisnDist::overflows                0      0.00%    100.00% # Number of instructions fetched each cycle (Total)
system.cpu.fetch.nisnDist::min_value                0                       # Number of instructions fetched each cycle (Total)
system.cpu.fetch.nisnDist::max_value                8                       # Number of instructions fetched each cycle (Total)
system.cpu.fetch.nisnDist::total             10593012                       # Number of instructions fetched each cycle (Total)
system.cpu.fetch.branchRate                  0.222231                       # Number of branch fetches per cycle
system.cpu.fetch.rate                        1.064617                       # Number of inst fetches per cycle
system.cpu.icache.demand_hits::.cpu.inst      1737221                       # number of demand (read+write) hits
system.cpu.icache.demand_hits::total          1737221                       # number of demand (read+write) hits
system.cpu.icache.overall_hits::.cpu.inst      1737221                       # number of overall hits
system.cpu.icache.overall_hits::total         1737221                       # number of overall hits
system.cpu.icache.demand_misses::.cpu.inst        17658                       # number of demand (read+write) misses
system.cpu.icache.demand_misses::total          17658                       # number of demand (read+write) misses
system.cpu.icache.overall_misses::.cpu.inst        17658                       # number of overall misses
system.cpu.icache.overall_misses::total         17658                       # number of overall misses
system.cpu.icache.demand_miss_latency::.cpu.inst    324658499                       # number of demand (read+write) miss cycles
system.cpu.icache.demand_miss_latency::total    324658499                       # number of demand (read+write) miss cycles
system.cpu.icache.overall_miss_latency::.cpu.inst    324658499                       # number of overall miss cycles
system.cpu.icache.overall_miss_latency::total    324658499                       # number of overall miss cycles
system.cpu.icache.demand_accesses::.cpu.inst      1754879                       # number of demand (read+write) accesses
system.cpu.icache.demand_accesses::total      1754879                       # number of demand (read+write) accesses
system.cpu.icache.overall_accesses::.cpu.inst      1754879                       # number of overall (read+write) accesses
system.cpu.icache.overall_accesses::total      1754879                       # number of overall (read+write) accesses
system.cpu.icache.demand_miss_rate::.cpu.inst     0.010062                       # miss rate for demand accesses
system.cpu.icache.demand_miss_rate::total     0.010062                       # miss rate for demand accesses
system.cpu.icache.overall_miss_rate::.cpu.inst     0.010062                       # miss rate for overall accesses
system.cpu.icache.overall_miss_rate::total     0.010062                       # miss rate for overall accesses
system.cpu.icache.demand_avg_miss_latency::.cpu.inst 18385.915676                       # average overall miss latency
system.cpu.icache.demand_avg_miss_latency::total 18385.915676                       # average overall miss latency
system.cpu.icache.overall_avg_miss_latency::.cpu.inst 18385.915676                       # average overall miss latency
system.cpu.icache.overall_avg_miss_latency::total 18385.915676                       # average overall miss latency
system.cpu.icache.blocked_cycles::no_mshrs          410                       # number of cycles access was blocked
system.cpu.icache.blocked_cycles::no_targets            0                       # number of cycles access was blocked
system.cpu.icache.blocked::no_mshrs                 8                       # number of cycles access was blocked
system.cpu.icache.blocked::no_targets               0                       # number of cycles access was blocked
system.cpu.icache.avg_blocked_cycles::no_mshrs    51.250000                       # average number of cycles each access was blocked
system.cpu.icache.avg_blocked_cycles::no_targets          nan                       # average number of cycles each access was blocked
system.cpu.icache.writebacks::.writebacks        16725                       # number of writebacks
system.cpu.icache.writebacks::total             16725                       # number of writebacks
system.cpu.icache.demand_mshr_hits::.cpu.inst          423                       # number of demand (read+write) MSHR hits
system.cpu.icache.demand_mshr_hits::total          423                       # number of demand (read+write) MSHR hits
system.cpu.icache.overall_mshr_hits::.cpu.inst          423                       # number of overall MSHR hits
system.cpu.icache.overall_mshr_hits::total          423                       # number of overall MSHR hits
system.cpu.icache.demand_mshr_misses::.cpu.inst        17235                       # number of demand (read+write) MSHR misses
system.cpu.icache.demand_mshr_misses::total        17235                       # number of demand (read+write) MSHR misses
system.cpu.icache.overall_mshr_misses::.cpu.inst        17235                       # number of overall MSHR misses
system.cpu.icache.overall_mshr_misses::total        17235                       # number of overall MSHR misses
system.cpu.icache.demand_mshr_miss_latency::.cpu.inst    285404499                       # number of demand (read+write) MSHR miss cycles
system.cpu.icache.demand_mshr_miss_latency::total    285404499                       # number of demand (read+write) MSHR miss cycles
system.cpu.icache.overall_mshr_miss_latency::.cpu.inst    285404499                       # number of overall MSHR miss cycles
system.cpu.icache.overall_mshr_miss_latency::total    285404499                       # number of overall MSHR miss cycles
system.cpu.icache.demand_mshr_miss_rate::.cpu.inst     0.009821                       # mshr miss rate for demand accesses
system.cpu.icache.demand_mshr_miss_rate::total     0.009821                       # mshr miss rate for demand accesses
system.cpu.icache.overall_mshr_miss_rate::.cpu.inst     0.009821                       # mshr miss rate for overall accesses
system.cpu.icache.overall_mshr_miss_rate::total     0.009821                       # mshr miss rate for overall accesses
system.cpu.icache.demand_avg_mshr_miss_latency::.cpu.inst 16559.587990                       # average overall mshr miss latency
system.cpu.icache.demand_avg_mshr_miss_latency::total 16559.587990                       # average overall mshr miss latency
system.cpu.icache.overall_avg_mshr_miss_latency::.cpu.inst 16559.587990                       # average overall mshr miss latency
system.cpu.icache.overall_avg_mshr_miss_latency::total 16559.587990                       # average overall mshr miss latency
system.cpu.icache.replacements                  16725                       # number of replacements
system.cpu.icache.ReadReq_hits::.cpu.inst      1737221                       # number of ReadReq hits
system.cpu.icache.ReadReq_hits::total         1737221                       # number of ReadReq hits
system.cpu.icache.ReadReq_misses::.cpu.inst        17658                       # number of ReadReq misses
system.cpu.icache.ReadReq_misses::total         17658                       # number of ReadReq misses
system.cpu.icache.ReadReq_miss_latency::.cpu.inst    324658499                       # number of ReadReq miss cycles
system.cpu.icache.ReadReq_miss_latency::total    324658499                       # number of ReadReq miss cycles
system.cpu.icache.ReadReq_accesses::.cpu.inst      1754879                       # number of ReadReq accesses(hits+misses)
system.cpu.icache.ReadReq_accesses::total      1754879                       # number of ReadReq accesses(hits+misses)
system.cpu.icache.ReadReq_miss_rate::.cpu.inst     0.010062                       # miss rate for ReadReq accesses
system.cpu.icache.ReadReq_miss_rate::total     0.010062                       # miss rate for ReadReq accesses
system.cpu.icache.ReadReq_avg_miss_latency::.cpu.inst 18385.915676                       # average ReadReq miss latency
system.cpu.icache.ReadReq_avg_miss_latency::total 18385.915676                       # average ReadReq miss latency
system.cpu.icache.ReadReq_mshr_hits::.cpu.inst          423                       # number of ReadReq MSHR hits
system.cpu.icache.ReadReq_mshr_hits::total          423                       # number of ReadReq MSHR hits
system.cpu.icache.ReadReq_mshr_misses::.cpu.inst        17235                       # number of ReadReq MSHR misses
system.cpu.icache.ReadReq_mshr_misses::total        17235                       # number of ReadReq MSHR misses
system.cpu.icache.ReadReq_mshr_miss_latency::.cpu.inst    285404499                       # number of ReadReq MSHR miss cycles
system.cpu.icache.ReadReq_mshr_miss_latency::total    285404499                       # number of ReadReq MSHR miss cycles
system.cpu.icache.ReadReq_mshr_miss_rate::.cpu.inst     0.009821                       # mshr miss rate for ReadReq accesses
system.cpu.icache.ReadReq_mshr_miss_rate::total     0.009821                       # mshr miss rate for ReadReq accesses
system.cpu.icache.ReadReq_avg_mshr_miss_latency::.cpu.inst 16559.587990                       # average ReadReq mshr miss latency
system.cpu.icache.ReadReq_avg_mshr_miss_latency::total 16559.587990                       # average ReadReq mshr miss latency
system.cpu.icache.power_state.pwrStateResidencyTicks::UNDEFINED   5339063000                       # Cumulative time (in ticks) in various power states
system.cpu.icache.tags.tagsinuse           504.947694                       # Cycle average of tags in use
system.cpu.icache.tags.total_refs             1754456                       # Total number of references to valid blocks.
system.cpu.icache.tags.sampled_refs             17235                       # Sample count of references to valid blocks.
system.cpu.icache.tags.avg_refs            101.796113                       # Average number of references to valid blocks.
system.cpu.icache.tags.warmup_cycle             79500                       # Cycle when the warmup percentage was hit.
system.cpu.icache.tags.occ_blocks::.cpu.inst   504.947694                       # Average occupied blocks per requestor
system.cpu.icache.tags.occ_percent::.cpu.inst     0.986226                       # Average percentage of cache occupancy
system.cpu.icache.tags.occ_percent::total     0.986226                       # Average percentage of cache occupancy
system.cpu.icache.tags.occ_task_id_blocks::1024          508                       # Occupied blocks per task id
system.cpu.icache.tags.age_task_id_blocks_1024::0            2                       # Occupied blocks per task id
system.cpu.icache.tags.age_task_id_blocks_1024::2            1                       # Occupied blocks per task id
system.cpu.icache.tags.age_task_id_blocks_1024::3          505                       # Occupied blocks per task id
system.cpu.icache.tags.occ_task_id_percent::1024     0.992188                       # Percentage of cache occupancy per task id
system.cpu.icache.tags.tag_accesses           3526993                       # Number of tag accesses
system.cpu.icache.tags.data_accesses          3526993                       # Number of data accesses
system.cpu.icache.tags.power_state.pwrStateResidencyTicks::UNDEFINED   5339063000                       # Cumulative time (in ticks) in various power states
system.cpu.interrupts.clk_domain.clock           8000                       # Clock period in ticks
system.cpu.itb.rdAccesses                           0                       # TLB accesses on read requests
system.cpu.itb.wrAccesses                     1755147                       # TLB accesses on write requests
system.cpu.itb.rdMisses                             0                       # TLB misses on read requests
system.cpu.itb.wrMisses                           403                       # TLB misses on write requests
system.cpu.itb.walker.power_state.pwrStateResidencyTicks::UNDEFINED   5339063000                       # Cumulative time (in ticks) in various power states
system.cpu.itb_walker_cache.blocked_cycles::no_mshrs            0                       # number of cycles access was blocked
system.cpu.itb_walker_cache.blocked_cycles::no_targets            0                       # number of cycles access was blocked
system.cpu.itb_walker_cache.blocked::no_mshrs            0                       # number of cycles access was blocked
system.cpu.itb_walker_cache.blocked::no_targets            0                       # number of cycles access was blocked
system.cpu.itb_walker_cache.avg_blocked_cycles::no_mshrs          nan                       # average number of cycles each access was blocked
system.cpu.itb_walker_cache.avg_blocked_cycles::no_targets          nan                       # average number of cycles each access was blocked
system.cpu.itb_walker_cache.replacements            0                       # number of replacements
system.cpu.itb_walker_cache.power_state.pwrStateResidencyTicks::UNDEFINED   5339063000                       # Cumulative time (in ticks) in various power states
system.cpu.itb_walker_cache.tags.tagsinuse            0                       # Cycle average of tags in use
system.cpu.itb_walker_cache.tags.total_refs            0                       # Total number of references to valid blocks.
system.cpu.itb_walker_cache.tags.sampled_refs            0                       # Sample count of references to valid blocks.
system.cpu.itb_walker_cache.tags.avg_refs          nan                       # Average number of references to valid blocks.
system.cpu.itb_walker_cache.tags.warmup_cycle            0                       # Cycle when the warmup percentage was hit.
system.cpu.itb_walker_cache.tags.tag_accesses            0                       # Number of tag accesses
system.cpu.itb_walker_cache.tags.data_accesses            0                       # Number of data accesses
system.cpu.itb_walker_cache.tags.power_state.pwrStateResidencyTicks::UNDEFINED   5339063000                       # Cumulative time (in ticks) in various power states
system.cpu.lsq0.forwLoads                      463594                       # Number of loads that had data forwarded from stores
system.cpu.lsq0.squashedLoads                  175737                       # Number of loads squashed
system.cpu.lsq0.ignoredResponses                 5749                       # Number of memory responses ignored because the instruction is squashed
system.cpu.lsq0.memOrderViolation                 212                       # Number of memory ordering violations
system.cpu.lsq0.squashedStores                  72033                       # Number of stores squashed
system.cpu.lsq0.rescheduledLoads                 5260                       # Number of loads that were rescheduled
system.cpu.lsq0.blockedByCache                    296                       # Number of times an access to memory failed due to the cache being blocked
system.cpu.power_state.pwrStateResidencyTicks::ON   5339063000                       # Cumulative time (in ticks) in various power states
system.cpu.rename.squashCycles                  46631                       # Number of cycles rename is squashing
system.cpu.rename.idleCycles                  2153238                       # Number of cycles rename is idle
system.cpu.rename.blockCycles                 1698217                       # Number of cycles rename is blocking
system.cpu.rename.serializeStallCycles           2660                       # count of cycles rename stalledfor serializing inst
system.cpu.rename.runCycles                   3114901                       # Number of cycles rename is running
system.cpu.rename.unblockCycles               3577365                       # Number of cycles rename is unblocking
system.cpu.rename.renamedInsts               20648545                       # Number of instructions processed by rename
system.cpu.rename.ROBFullEvents                  9995                       # Number of times rename has blocked due to ROB full
system.cpu.rename.IQFullEvents                 129919                       # Number of times rename has blocked due to IQ full
system.cpu.rename.LQFullEvents                    863                       # Number of times rename has blocked due to LQ full
system.cpu.rename.SQFullEvents                3398361                       # Number of times rename has blocked due to SQ full
system.cpu.rename.fullRegistersEvents              20                       # Number of times there has been no free registers
system.cpu.rename.renamedOperands            22969106                       # Number of destination operands rename has renamed
system.cpu.rename.lookups                    54300664                       # Number of register rename lookups that rename has made
system.cpu.rename.intLookups                 32185664                       # Number of integer rename lookups
system.cpu.rename.fpLookups                    599678                       # Number of floating rename lookups
system.cpu.rename.committedMaps              20863668                       # Number of HB maps that are committed
system.cpu.rename.undoneMaps                  2105400                       # Number of HB maps that are undone due to squashing
system.cpu.rename.serializing                      39                       # count of serializing insts renamed
system.cpu.rename.tempSerializing                  22                       # count of temporary serializing insts renamed
system.cpu.rename.skidInsts                   1706868                       # count of insts added to the skid buffer
system.cpu.rob.reads                         29703280                       # The number of ROB reads
system.cpu.rob.writes                        40802937                       # The number of ROB writes
system.cpu.thread_0.numInsts                 10000001                       # Number of Instructions committed
system.cpu.thread_0.numOps                   18847133                       # Number of Ops committed
system.cpu.thread_0.numMemRefs                      0                       # Number of Memory References
system.cpu_clk_domain.clock                       500                       # Clock period in ticks
system.cpu_voltage_domain.voltage                   1                       # Voltage in Volts
system.l2.demand_hits::.cpu.inst                15889                       # number of demand (read+write) hits
system.l2.demand_hits::.cpu.data                 7004                       # number of demand (read+write) hits
system.l2.demand_hits::total                    22893                       # number of demand (read+write) hits
system.l2.overall_hits::.cpu.inst               15889                       # number of overall hits
system.l2.overall_hits::.cpu.data                7004                       # number of overall hits
system.l2.overall_hits::total                   22893                       # number of overall hits
system.l2.demand_misses::.cpu.inst               1343                       # number of demand (read+write) misses
system.l2.demand_misses::.cpu.data              37654                       # number of demand (read+write) misses
system.l2.demand_misses::total                  38997                       # number of demand (read+write) misses
system.l2.overall_misses::.cpu.inst              1343                       # number of overall misses
system.l2.overall_misses::.cpu.data             37654                       # number of overall misses
system.l2.overall_misses::total                 38997                       # number of overall misses
system.l2.demand_miss_latency::.cpu.inst     92356000                       # number of demand (read+write) miss cycles
system.l2.demand_miss_latency::.cpu.data   2994869000                       # number of demand (read+write) miss cycles
system.l2.demand_miss_latency::total       3087225000                       # number of demand (read+write) miss cycles
system.l2.overall_miss_latency::.cpu.inst     92356000                       # number of overall miss cycles
system.l2.overall_miss_latency::.cpu.data   2994869000                       # number of overall miss cycles
system.l2.overall_miss_latency::total      3087225000                       # number of overall miss cycles
system.l2.demand_accesses::.cpu.inst            17232                       # number of demand (read+write) accesses
system.l2.demand_accesses::.cpu.data            44658                       # number of demand (read+write) accesses
system.l2.demand_accesses::total                61890                       # number of demand (read+write) accesses
system.l2.overall_accesses::.cpu.inst           17232                       # number of overall (read+write) accesses
system.l2.overall_accesses::.cpu.data           44658                       # number of overall (read+write) accesses
system.l2.overall_accesses::total               61890                       # number of overall (read+write) accesses
system.l2.demand_miss_rate::.cpu.inst        0.077936                       # miss rate for demand accesses
system.l2.demand_miss_rate::.cpu.data        0.843164                       # miss rate for demand accesses
system.l2.demand_miss_rate::total            0.630102                       # miss rate for demand accesses
system.l2.overall_miss_rate::.cpu.inst       0.077936                       # miss rate for overall accesses
system.l2.overall_miss_rate::.cpu.data       0.843164                       # miss rate for overall accesses
system.l2.overall_miss_rate::total           0.630102                       # miss rate for overall accesses
system.l2.demand_avg_miss_latency::.cpu.inst 68768.428891                       # average overall miss latency
system.l2.demand_avg_miss_latency::.cpu.data 79536.543262                       # average overall miss latency
system.l2.demand_avg_miss_latency::total 79165.705054                       # average overall miss latency
system.l2.overall_avg_miss_latency::.cpu.inst 68768.428891                       # average overall miss latency
[...]
system.mem_ctrls.dram.readBursts                38997                       # Number of DRAM read bursts
system.mem_ctrls.dram.writeBursts               27374                       # Number of DRAM write bursts
system.mem_ctrls.dram.perBankRdBursts::0         2327                       # Per bank write bursts
system.mem_ctrls.dram.perBankRdBursts::1         2380                       # Per bank write bursts
system.mem_ctrls.dram.perBankRdBursts::2         2543                       # Per bank write bursts
system.mem_ctrls.dram.perBankRdBursts::3         2368                       # Per bank write bursts
system.mem_ctrls.dram.perBankRdBursts::4         2517                       # Per bank write bursts
system.mem_ctrls.dram.perBankRdBursts::5         2596                       # Per bank write bursts
system.mem_ctrls.dram.perBankRdBursts::6         2334                       # Per bank write bursts
system.mem_ctrls.dram.perBankRdBursts::7         2505                       # Per bank write bursts
system.mem_ctrls.dram.perBankRdBursts::8         2446                       # Per bank write bursts
system.mem_ctrls.dram.perBankRdBursts::9         2399                       # Per bank write bursts
system.mem_ctrls.dram.perBankRdBursts::10         2351                       # Per bank write bursts
system.mem_ctrls.dram.perBankRdBursts::11         2375                       # Per bank write bursts
system.mem_ctrls.dram.perBankRdBursts::12         2581                       # Per bank write bursts
system.mem_ctrls.dram.perBankRdBursts::13         2441                       # Per bank write bursts
system.mem_ctrls.dram.perBankRdBursts::14         2451                       # Per bank write bursts
system.mem_ctrls.dram.perBankRdBursts::15         2383                       # Per bank write bursts
system.mem_ctrls.dram.perBankWrBursts::0         1608                       # Per bank write bursts
system.mem_ctrls.dram.perBankWrBursts::1         1588                       # Per bank write bursts
system.mem_ctrls.dram.perBankWrBursts::2         1830                       # Per bank write bursts
system.mem_ctrls.dram.perBankWrBursts::3         1717                       # Per bank write bursts
system.mem_ctrls.dram.perBankWrBursts::4         1762                       # Per bank write bursts
system.mem_ctrls.dram.perBankWrBursts::5         1729                       # Per bank write bursts
system.mem_ctrls.dram.perBankWrBursts::6         1659                       # Per bank write bursts
system.mem_ctrls.dram.perBankWrBursts::7         1792                       # Per bank write bursts
system.mem_ctrls.dram.perBankWrBursts::8         1770                       # Per bank write bursts
system.mem_ctrls.dram.perBankWrBursts::9         1718                       # Per bank write bursts
system.mem_ctrls.dram.perBankWrBursts::10         1681                       # Per bank write bursts
system.mem_ctrls.dram.perBankWrBursts::11         1652                       # Per bank write bursts
system.mem_ctrls.dram.perBankWrBursts::12         1788                       # Per bank write bursts
system.mem_ctrls.dram.perBankWrBursts::13         1717                       # Per bank write bursts
system.mem_ctrls.dram.perBankWrBursts::14         1661                       # Per bank write bursts
system.mem_ctrls.dram.perBankWrBursts::15         1702                       # Per bank write bursts
system.mem_ctrls.dram.totQLat               671903000                       # Total ticks spent queuing
system.mem_ctrls.dram.totBusLat             194985000                       # Total ticks spent in databus transfers
system.mem_ctrls.dram.totMemAccLat         1403096750                       # Total ticks spent from burst creation until serviced by the DRAM
system.mem_ctrls.dram.avgQLat                17229.61                       # Average queueing delay per DRAM burst
system.mem_ctrls.dram.avgBusLat               5000.00                       # Average bus latency per DRAM burst
system.mem_ctrls.dram.avgMemAccLat           35979.61                       # Average memory access latency per DRAM burst
system.mem_ctrls.dram.readRowHits               19114                       # Number of row buffer hits during reads
system.mem_ctrls.dram.writeRowHits              14660                       # Number of row buffer hits during writes
system.mem_ctrls.dram.readRowHitRate            49.01                       # Row buffer hit rate for reads
system.mem_ctrls.dram.writeRowHitRate           53.55                       # Row buffer hit rate for writes
system.mem_ctrls.dram.bytesPerActivate::samples        32585                       # Bytes accessed per row activation
system.mem_ctrls.dram.bytesPerActivate::mean   130.319595                       # Bytes accessed per row activation
system.mem_ctrls.dram.bytesPerActivate::gmean    96.676067                       # Bytes accessed per row activation
system.mem_ctrls.dram.bytesPerActivate::stdev   144.184816                       # Bytes accessed per row activation
system.mem_ctrls.dram.bytesPerActivate::0-127        21236     65.17%     65.17% # Bytes accessed per row activation
system.mem_ctrls.dram.bytesPerActivate::128-255         7189     22.06%     87.23% # Bytes accessed per row activation
system.mem_ctrls.dram.bytesPerActivate::256-383         1850      5.68%     92.91% # Bytes accessed per row activation
system.mem_ctrls.dram.bytesPerActivate::384-511          943      2.89%     95.80% # Bytes accessed per row activation
system.mem_ctrls.dram.bytesPerActivate::512-639          644      1.98%     97.78% # Bytes accessed per row activation
system.mem_ctrls.dram.bytesPerActivate::640-767          304      0.93%     98.71% # Bytes accessed per row activation
system.mem_ctrls.dram.bytesPerActivate::768-895          180      0.55%     99.27% # Bytes accessed per row activation
system.mem_ctrls.dram.bytesPerActivate::896-1023           66      0.20%     99.47% # Bytes accessed per row activation
system.mem_ctrls.dram.bytesPerActivate::1024-1151          173      0.53%    100.00% # Bytes accessed per row activation
system.mem_ctrls.dram.bytesPerActivate::total        32585                       # Bytes accessed per row activation
system.mem_ctrls.dram.bytesRead               2495808                       # Total number of bytes read from DRAM
system.mem_ctrls.dram.bytesWritten            1751936                       # Total number of bytes written to DRAM
system.mem_ctrls.dram.avgRdBW              467.461800                       # Average DRAM read bandwidth in MiBytes/s
system.mem_ctrls.dram.avgWrBW              328.135480                       # Average DRAM write bandwidth in MiBytes/s
system.mem_ctrls.dram.peakBW                 12800.00                       # Theoretical peak bandwidth in MiByte/s
system.mem_ctrls.dram.busUtil                    6.22                       # Data bus utilization in percentage
system.mem_ctrls.dram.busUtilRead                3.65                       # Data bus utilization in percentage for reads
system.mem_ctrls.dram.busUtilWrite               2.56                       # Data bus utilization in percentage for writes
system.mem_ctrls.dram.pageHitRate               50.89                       # Row buffer hit rate, read and write combined
system.mem_ctrls.dram.power_state.pwrStateResidencyTicks::UNDEFINED   5339063000                       # Cumulative time (in ticks) in various power states
system.mem_ctrls.dram.rank0.actEnergy       116753280                       # Energy for activate commands per rank (pJ)
system.mem_ctrls.dram.rank0.preEnergy        62025480                       # Energy for precharge commands per rank (pJ)
system.mem_ctrls.dram.rank0.readEnergy      139729800                       # Energy for read commands per rank (pJ)
system.mem_ctrls.dram.rank0.writeEnergy      71435700                       # Energy for write commands per rank (pJ)
system.mem_ctrls.dram.rank0.refreshEnergy 421028400.000000                       # Energy for refresh commands per rank (pJ)
system.mem_ctrls.dram.rank0.actBackEnergy   2362875720                       # Energy for active background per rank (pJ)
system.mem_ctrls.dram.rank0.preBackEnergy     60410400                       # Energy for precharge background per rank (pJ)
system.mem_ctrls.dram.rank0.actPowerDownEnergy            0                       # Energy for active power-down per rank (pJ)
system.mem_ctrls.dram.rank0.prePowerDownEnergy            0                       # Energy for precharge power-down per rank (pJ)
system.mem_ctrls.dram.rank0.selfRefreshEnergy            0                       # Energy for self refresh per rank (pJ)
system.mem_ctrls.dram.rank0.totalEnergy    3234258780                       # Total energy per rank (pJ)
system.mem_ctrls.dram.rank0.averagePower   605.772732                       # Core power per rank (mW)
system.mem_ctrls.dram.rank0.totalIdleTime            0                       # Total Idle time Per DRAM Rank
system.mem_ctrls.dram.rank0.pwrStateTime::IDLE    137463250                       # Time in different power states
system.mem_ctrls.dram.rank0.pwrStateTime::REF    178100000                       # Time in different power states
system.mem_ctrls.dram.rank0.pwrStateTime::SREF            0                       # Time in different power states
system.mem_ctrls.dram.rank0.pwrStateTime::PRE_PDN            0                       # Time in different power states
system.mem_ctrls.dram.rank0.pwrStateTime::ACT   5023499750                       # Time in different power states
system.mem_ctrls.dram.rank0.pwrStateTime::ACT_PDN            0                       # Time in different power states
system.mem_ctrls.dram.rank1.actEnergy       115989300                       # Energy for activate commands per rank (pJ)
system.mem_ctrls.dram.rank1.preEnergy        61634595                       # Energy for precharge commands per rank (pJ)
system.mem_ctrls.dram.rank1.readEnergy      138708780                       # Energy for read commands per rank (pJ)
system.mem_ctrls.dram.rank1.writeEnergy      71456580                       # Energy for write commands per rank (pJ)
system.mem_ctrls.dram.rank1.refreshEnergy 421028400.000000                       # Energy for refresh commands per rank (pJ)
system.mem_ctrls.dram.rank1.actBackEnergy   2360030280                       # Energy for active background per rank (pJ)
system.mem_ctrls.dram.rank1.preBackEnergy     62806560                       # Energy for precharge background per rank (pJ)
system.mem_ctrls.dram.rank1.actPowerDownEnergy            0                       # Energy for active power-down per rank (pJ)
system.mem_ctrls.dram.rank1.prePowerDownEnergy            0                       # Energy for precharge power-down per rank (pJ)
system.mem_ctrls.dram.rank1.selfRefreshEnergy            0                       # Energy for self refresh per rank (pJ)
system.mem_ctrls.dram.rank1.totalEnergy    3231654495                       # Total energy per rank (pJ)
system.mem_ctrls.dram.rank1.averagePower   605.284953                       # Core power per rank (mW)
system.mem_ctrls.dram.rank1.totalIdleTime            0                       # Total Idle time Per DRAM Rank
system.mem_ctrls.dram.rank1.pwrStateTime::IDLE    143681500                       # Time in different power states
system.mem_ctrls.dram.rank1.pwrStateTime::REF    178100000                       # Time in different power states
system.mem_ctrls.dram.rank1.pwrStateTime::SREF            0                       # Time in different power states
system.mem_ctrls.dram.rank1.pwrStateTime::PRE_PDN            0                       # Time in different power states
system.mem_ctrls.dram.rank1.pwrStateTime::ACT   5017281500                       # Time in different power states
system.mem_ctrls.dram.rank1.pwrStateTime::ACT_PDN            0                       # Time in different power states
system.mem_ctrls.power_state.pwrStateResidencyTicks::UNDEFINED   5339063000                       # Cumulative time (in ticks) in various power states
system.membus.trans_dist::ReadResp              10204                       # Transaction distribution
system.membus.trans_dist::WritebackDirty        27399                       # Transaction distribution
system.membus.trans_dist::CleanEvict             2875                       # Transaction distribution
system.membus.trans_dist::ReadExReq             28793                       # Transaction distribution
system.membus.trans_dist::ReadExResp            28793                       # Transaction distribution
system.membus.trans_dist::ReadSharedReq         10204                       # Transaction distribution
system.membus.pkt_count_system.l2.mem_side_port::system.mem_ctrls.port       108268                       # Packet count per connected requestor and responder (bytes)
system.membus.pkt_count_system.l2.mem_side_port::total       108268                       # Packet count per connected requestor and responder (bytes)
system.membus.pkt_count::total                 108268                       # Packet count per connected requestor and responder (bytes)
system.membus.pkt_size_system.l2.mem_side_port::system.mem_ctrls.port      4249344                       # Cumulative packet size per connected requestor and responder (bytes)
system.membus.pkt_size_system.l2.mem_side_port::total      4249344                       # Cumulative packet size per connected requestor and responder (bytes)
system.membus.pkt_size::total                 4249344                       # Cumulative packet size per connected requestor and responder (bytes)
system.membus.snoops                                0                       # Total snoops (count)
system.membus.snoopTraffic                          0                       # Total snoop traffic (bytes)
system.membus.snoop_fanout::samples             38997                       # Request fanout histogram
system.membus.snoop_fanout::mean                    0                       # Request fanout histogram
system.membus.snoop_fanout::stdev                   0                       # Request fanout histogram
system.membus.snoop_fanout::underflows              0      0.00%      0.00% # Request fanout histogram
system.membus.snoop_fanout::0                   38997    100.00%    100.00% # Request fanout histogram
system.membus.snoop_fanout::1                       0      0.00%    100.00% # Request fanout histogram
system.membus.snoop_fanout::overflows               0      0.00%    100.00% # Request fanout histogram
system.membus.snoop_fanout::min_value               0                       # Request fanout histogram
system.membus.snoop_fanout::max_value               0                       # Request fanout histogram
system.membus.snoop_fanout::total               38997                       # Request fanout histogram
system.membus.power_state.pwrStateResidencyTicks::UNDEFINED   5339063000                       # Cumulative time (in ticks) in various power states
system.membus.reqLayer2.occupancy            44716750                       # Layer occupancy (ticks)
system.membus.reqLayer2.utilization               0.8                       # Layer utilization (%)
system.membus.respLayer1.occupancy           48746250                       # Layer occupancy (ticks)
system.membus.respLayer1.utilization              0.9                       # Layer utilization (%)
system.tol2bus.trans_dist::ReadResp             29443                       # Transaction distribution
system.tol2bus.trans_dist::WritebackDirty        67874                       # Transaction distribution
system.tol2bus.trans_dist::WritebackClean        16725                       # Transaction distribution
system.tol2bus.trans_dist::CleanEvict            7122                       # Transaction distribution
system.tol2bus.trans_dist::UpgradeReq               2                       # Transaction distribution
system.tol2bus.trans_dist::UpgradeResp              2                       # Transaction distribution
system.tol2bus.trans_dist::ReadExReq            32450                       # Transaction distribution
system.tol2bus.trans_dist::ReadExResp           32450                       # Transaction distribution
system.tol2bus.trans_dist::ReadCleanReq         17235                       # Transaction distribution
system.tol2bus.trans_dist::ReadSharedReq        12208                       # Transaction distribution
system.tol2bus.pkt_count_system.cpu.icache.mem_side_port::system.l2.cpu_side_port        51192                       # Packet count per connected requestor and responder (bytes)
system.tol2bus.pkt_count_system.cpu.dcache.mem_side_port::system.l2.cpu_side_port       133466                       # Packet count per connected requestor and responder (bytes)
system.tol2bus.pkt_count::total                184658                       # Packet count per connected requestor and responder (bytes)
system.tol2bus.pkt_size_system.cpu.icache.mem_side_port::system.l2.cpu_side_port      2173248                       # Cumulative packet size per connected requestor and responder (bytes)
system.tol2bus.pkt_size_system.cpu.dcache.mem_side_port::system.l2.cpu_side_port      5448512                       # Cumulative packet size per connected requestor and responder (bytes)
system.tol2bus.pkt_size::total                7621760                       # Cumulative packet size per connected requestor and responder (bytes)
system.tol2bus.snoops                           30853                       # Total snoops (count)
system.tol2bus.snoopTraffic                   1753728                       # Total snoop traffic (bytes)
system.tol2bus.snoop_fanout::samples            92745                       # Request fanout histogram
system.tol2bus.snoop_fanout::mean            0.006469                       # Request fanout histogram
system.tol2bus.snoop_fanout::stdev           0.080441                       # Request fanout histogram
system.tol2bus.snoop_fanout::underflows             0      0.00%      0.00% # Request fanout histogram
system.tol2bus.snoop_fanout::0                  92147     99.36%     99.36% # Request fanout histogram
system.tol2bus.snoop_fanout::1                    596      0.64%    100.00% # Request fanout histogram
system.tol2bus.snoop_fanout::2                      2      0.00%    100.00% # Request fanout histogram
system.tol2bus.snoop_fanout::3                      0      0.00%    100.00% # Request fanout histogram
system.tol2bus.snoop_fanout::4                      0      0.00%    100.00% # Request fanout histogram
system.tol2bus.snoop_fanout::overflows              0      0.00%    100.00% # Request fanout histogram
system.tol2bus.snoop_fanout::min_value              0                       # Request fanout histogram
system.tol2bus.snoop_fanout::max_value              2                       # Request fanout histogram
system.tol2bus.snoop_fanout::total              92745                       # Request fanout histogram
system.tol2bus.power_state.pwrStateResidencyTicks::UNDEFINED   5339063000                       # Cumulative time (in ticks) in various power states
system.tol2bus.reqLayer0.occupancy          118583000                       # Layer occupancy (ticks)
system.tol2bus.reqLayer0.utilization              2.2                       # Layer utilization (%)
system.tol2bus.respLayer0.occupancy          25854496                       # Layer occupancy (ticks)
system.tol2bus.respLayer0.utilization             0.5                       # Layer utilization (%)
system.tol2bus.respLayer1.occupancy          66988000                       # Layer occupancy (ticks)
system.tol2bus.respLayer1.utilization             1.3                       # Layer utilization (%)
system.voltage_domain.voltage                       1                       # Voltage in Volts

---------- End Simulation Statistics   ----------
