
---------- Begin Simulation Statistics ----------
final_tick                                  106627000                       # Number of ticks from beginning of simulation (restored from checkpoints and never reset)
host_inst_rate                                  38127                       # Simulator instruction rate (inst/s)
host_mem_usage                                2218484                       # Number of bytes of host memory used
host_op_rate                                   229463                       # Simulator op (including micro ops) rate (op/s)
host_seconds                                     0.75                       # Real time elapsed on the host
host_tick_rate                               99765970                       # Simulator tick rate (ticks/s)
sim_freq                                 1000000000000                       # Frequency of simulated ticks
sim_insts                                       28401                       # Number of instructions simulated
sim_ops                                        170995                       # Number of ops (including micro ops) simulated
sim_seconds                                  0.000074                       # Number of seconds simulated
sim_ticks                                    74352000                       # Number of ticks simulated
system.cpu.cc_regfile_reads                    225597                       # number of cc regfile reads
system.cpu.cc_regfile_writes                    41334                       # number of cc regfile writes
system.cpu.committedInsts                       20492                       # Number of Instructions Simulated
system.cpu.committedOps                        155674                       # Number of Ops (including micro ops) Simulated
system.cpu.cpi                               3.628343                       # CPI: Cycles Per Instruction
system.cpu.cpi_total                         3.628343                       # CPI: Total CPI of All Threads
system.cpu.iew.branchMispredicts                   58                       # Number of branch mispredicts detected at execute
system.cpu.iew.exec_branches                     8435                       # Number of branches executed
system.cpu.iew.exec_nop                             0                       # number of nop insts executed
system.cpu.iew.exec_rate                     2.125834                       # Inst execution rate
system.cpu.iew.exec_refs                          384                       # number of memory reference insts executed
system.cpu.iew.exec_stores                        159                       # Number of stores executed
system.cpu.iew.exec_swp                             0                       # number of swp insts executed
system.cpu.iew.iewBlockCycles                     470                       # Number of cycles IEW is blocking
system.cpu.iew.iewDispLoadInsts                   304                       # Number of dispatched load instructions
system.cpu.iew.iewDispNonSpecInsts                 48                       # Number of dispatched non-speculative instructions
system.cpu.iew.iewDispSquashedInsts                 0                       # Number of squashed instructions skipped by dispatch
system.cpu.iew.iewDispStoreInsts                  511                       # Number of dispatched store instructions
system.cpu.iew.iewDispatchedInsts              159598                       # Number of instructions dispatched to IQ
system.cpu.iew.iewExecLoadInsts                   225                       # Number of load instructions executed
system.cpu.iew.iewExecSquashedInsts                88                       # Number of squashed instructions skipped in execute
system.cpu.iew.iewExecutedInsts                158060                       # Number of executed instructions
system.cpu.iew.iewIQFullEvents                      0                       # Number of times the IQ has become full, causing a stall
system.cpu.iew.iewIdleCycles                        0                       # Number of cycles IEW is idle
system.cpu.iew.iewLSQFullEvents                     0                       # Number of times the LSQ has become full, causing a stall
system.cpu.iew.iewSquashCycles                     48                       # Number of cycles IEW is squashing
system.cpu.iew.iewUnblockCycles                     0                       # Number of cycles IEW is unblocking
system.cpu.iew.memOrderViolationEvents              0                       # Number of memory order violations
system.cpu.iew.predictedNotTakenIncorrect           57                       # Number of branches that were predicted not taken incorrectly
system.cpu.iew.predictedTakenIncorrect              1                       # Number of branches that were predicted taken incorrectly
system.cpu.iew.wb_consumers                    389217                       # num instructions consuming a value
system.cpu.iew.wb_count                        158022                       # cumulative count of insts written-back
system.cpu.iew.wb_fanout                     0.366705                       # average fanout of values written-back
system.cpu.iew.wb_producers                    142728                       # num instructions producing a value
system.cpu.iew.wb_rate                       2.125323                       # insts written-back per cycle
system.cpu.iew.wb_sent                         158058                       # cumulative count of insts sent to commit
system.cpu.int_regfile_reads                   358926                       # number of integer regfile reads
system.cpu.int_regfile_writes                  206660                       # number of integer regfile writes
system.cpu.ipc                               0.275608                       # IPC: Instructions Per Cycle
system.cpu.ipc_total                         0.275608                       # IPC: Total IPC of All Threads
system.cpu.iq.FU_type_0::No_OpClass              4201      2.66%      2.66% # Type of FU issued
system.cpu.iq.FU_type_0::IntAlu                124810     78.92%     81.57% # Type of FU issued
system.cpu.iq.FU_type_0::IntMult                    0      0.00%     81.57% # Type of FU issued
system.cpu.iq.FU_type_0::IntDiv                 28672     18.13%     99.70% # Type of FU issued
system.cpu.iq.FU_type_0::FloatAdd                   0      0.00%     99.70% # Type of FU issued
system.cpu.iq.FU_type_0::FloatCmp                   0      0.00%     99.70% # Type of FU issued
system.cpu.iq.FU_type_0::FloatCvt                   0      0.00%     99.70% # Type of FU issued
system.cpu.iq.FU_type_0::FloatMult                  0      0.00%     99.70% # Type of FU issued
system.cpu.iq.FU_type_0::FloatMultAcc               0      0.00%     99.70% # Type of FU issued
system.cpu.iq.FU_type_0::FloatDiv                   0      0.00%     99.70% # Type of FU issued
system.cpu.iq.FU_type_0::FloatMisc                  0      0.00%     99.70% # Type of FU issued
system.cpu.iq.FU_type_0::FloatSqrt                  0      0.00%     99.70% # Type of FU issued
system.cpu.iq.FU_type_0::SimdAdd                    0      0.00%     99.70% # Type of FU issued
system.cpu.iq.FU_type_0::SimdAddAcc                 0      0.00%     99.70% # Type of FU issued
system.cpu.iq.FU_type_0::SimdAlu                    0      0.00%     99.70% # Type of FU issued
system.cpu.iq.FU_type_0::SimdCmp                    0      0.00%     99.70% # Type of FU issued
system.cpu.iq.FU_type_0::SimdCvt                    0      0.00%     99.70% # Type of FU issued
system.cpu.iq.FU_type_0::SimdMisc                   0      0.00%     99.70% # Type of FU issued
system.cpu.iq.FU_type_0::SimdMult                   0      0.00%     99.70% # Type of FU issued
system.cpu.iq.FU_type_0::SimdMultAcc                0      0.00%     99.70% # Type of FU issued
system.cpu.iq.FU_type_0::SimdShift                  0      0.00%     99.70% # Type of FU issued
system.cpu.iq.FU_type_0::SimdShiftAcc               0      0.00%     99.70% # Type of FU issued
system.cpu.iq.FU_type_0::SimdDiv                    0      0.00%     99.70% # Type of FU issued
system.cpu.iq.FU_type_0::SimdSqrt                   0      0.00%     99.70% # Type of FU issued
system.cpu.iq.FU_type_0::SimdFloatAdd               0      0.00%     99.70% # Type of FU issued
system.cpu.iq.FU_type_0::SimdFloatAlu               0      0.00%     99.70% # Type of FU issued
system.cpu.iq.FU_type_0::SimdFloatCmp               0      0.00%     99.70% # Type of FU issued
system.cpu.iq.FU_type_0::SimdFloatCvt               0      0.00%     99.70% # Type of FU issued
system.cpu.iq.FU_type_0::SimdFloatDiv               0      0.00%     99.70% # Type of FU issued
system.cpu.iq.FU_type_0::SimdFloatMisc              0      0.00%     99.70% # Type of FU issued
system.cpu.iq.FU_type_0::SimdFloatMult              0      0.00%     99.70% # Type of FU issued
system.cpu.iq.FU_type_0::SimdFloatMultAcc            0      0.00%     99.70% # Type of FU issued
system.cpu.iq.FU_type_0::SimdFloatSqrt              0      0.00%     99.70% # Type of FU issued
system.cpu.iq.FU_type_0::SimdReduceAdd              0      0.00%     99.70% # Type of FU issued
system.cpu.iq.FU_type_0::SimdReduceAlu              0      0.00%     99.70% # Type of FU issued
system.cpu.iq.FU_type_0::SimdReduceCmp              0      0.00%     99.70% # Type of FU issued
system.cpu.iq.FU_type_0::SimdFloatReduceAdd            0      0.00%     99.70% # Type of FU issued
system.cpu.iq.FU_type_0::SimdFloatReduceCmp            0      0.00%     99.70% # Type of FU issued
system.cpu.iq.FU_type_0::SimdAes                    0      0.00%     99.70% # Type of FU issued
system.cpu.iq.FU_type_0::SimdAesMix                 0      0.00%     99.70% # Type of FU issued
system.cpu.iq.FU_type_0::SimdSha1Hash               0      0.00%     99.70% # Type of FU issued
system.cpu.iq.FU_type_0::SimdSha1Hash2              0      0.00%     99.70% # Type of FU issued
system.cpu.iq.FU_type_0::SimdSha256Hash             0      0.00%     99.70% # Type of FU issued
system.cpu.iq.FU_type_0::SimdSha256Hash2            0      0.00%     99.70% # Type of FU issued
system.cpu.iq.FU_type_0::SimdShaSigma2              0      0.00%     99.70% # Type of FU issued
system.cpu.iq.FU_type_0::SimdShaSigma3              0      0.00%     99.70% # Type of FU issued
system.cpu.iq.FU_type_0::SimdPredAlu                0      0.00%     99.70% # Type of FU issued
system.cpu.iq.FU_type_0::MemRead                  264      0.17%     99.87% # Type of FU issued
system.cpu.iq.FU_type_0::MemWrite                 206      0.13%    100.00% # Type of FU issued
system.cpu.iq.FU_type_0::FloatMemRead               0      0.00%    100.00% # Type of FU issued
system.cpu.iq.FU_type_0::FloatMemWrite              0      0.00%    100.00% # Type of FU issued
system.cpu.iq.FU_type_0::IprAccess                  0      0.00%    100.00% # Type of FU issued
system.cpu.iq.FU_type_0::InstPrefetch               0      0.00%    100.00% # Type of FU issued
system.cpu.iq.FU_type_0::total                 158153                       # Type of FU issued
system.cpu.iq.fp_alu_accesses                       0                       # Number of floating point alu accesses
system.cpu.iq.fp_inst_queue_reads                   0                       # Number of floating instruction queue reads
system.cpu.iq.fp_inst_queue_wakeup_accesses            0                       # Number of floating instruction queue wakeup accesses
system.cpu.iq.fp_inst_queue_writes                  0                       # Number of floating instruction queue writes
system.cpu.iq.fu_busy_cnt                         102                       # FU busy when requested
system.cpu.iq.fu_busy_rate                   0.000645                       # FU busy rate (busy events/executed inst)
system.cpu.iq.fu_full::No_OpClass                   0      0.00%      0.00% # attempts to use FU when none available
system.cpu.iq.fu_full::IntAlu                     102    100.00%    100.00% # attempts to use FU when none available
system.cpu.iq.fu_full::IntMult                      0      0.00%    100.00% # attempts to use FU when none available
system.cpu.iq.fu_full::IntDiv                       0      0.00%    100.00% # attempts to use FU when none available
system.cpu.iq.fu_full::FloatAdd                     0      0.00%    100.00% # attempts to use FU when none available
system.cpu.iq.fu_full::FloatCmp                     0      0.00%    100.00% # attempts to use FU when none available
system.cpu.iq.fu_full::FloatCvt                     0      0.00%    100.00% # attempts to use FU when none available
system.cpu.iq.fu_full::FloatMult                    0      0.00%    100.00% # attempts to use FU when none available
system.cpu.iq.fu_full::FloatMultAcc                 0      0.00%    100.00% # attempts to use FU when none available
system.cpu.iq.fu_full::FloatDiv                     0      0.00%    100.00% # attempts to use FU when none available
system.cpu.iq.fu_full::FloatMisc                    0      0.00%    100.00% # attempts to use FU when none available
system.cpu.iq.fu_full::FloatSqrt                    0      0.00%    100.00% # attempts to use FU when none available
system.cpu.iq.fu_full::SimdAdd                      0      0.00%    100.00% # attempts to use FU when none available
system.cpu.iq.fu_full::SimdAddAcc                   0      0.00%    100.00% # attempts to use FU when none available
system.cpu.iq.fu_full::SimdAlu                      0      0.00%    100.00% # attempts to use FU when none available
system.cpu.iq.fu_full::SimdCmp                      0      0.00%    100.00% # attempts to use FU when none available
system.cpu.iq.fu_full::SimdCvt                      0      0.00%    100.00% # attempts to use FU when none available
system.cpu.iq.fu_full::SimdMisc                     0      0.00%    100.00% # attempts to use FU when none available
system.cpu.iq.fu_full::SimdMult                     0      0.00%    100.00% # attempts to use FU when none available
system.cpu.iq.fu_full::SimdMultAcc                  0      0.00%    100.00% # attempts to use FU when none available
system.cpu.iq.fu_full::SimdShift                    0      0.00%    100.00% # attempts to use FU when none available
system.cpu.iq.fu_full::SimdShiftAcc                 0      0.00%    100.00% # attempts to use FU when none available
system.cpu.iq.fu_full::SimdDiv                      0      0.00%    100.00% # attempts to use FU when none available
system.cpu.iq.fu_full::SimdSqrt                     0      0.00%    100.00% # attempts to use FU when none available
system.cpu.iq.fu_full::SimdFloatAdd                 0      0.00%    100.00% # attempts to use FU when none available
system.cpu.iq.fu_full::SimdFloatAlu                 0      0.00%    100.00% # attempts to use FU when none available
system.cpu.iq.fu_full::SimdFloatCmp                 0      0.00%    100.00% # attempts to use FU when none available
system.cpu.iq.fu_full::SimdFloatCvt                 0      0.00%    100.00% # attempts to use FU when none available
system.cpu.iq.fu_full::SimdFloatDiv                 0      0.00%    100.00% # attempts to use FU when none available
system.cpu.iq.fu_full::SimdFloatMisc                0      0.00%    100.00% # attempts to use FU when none available
system.cpu.iq.fu_full::SimdFloatMult                0      0.00%    100.00% # attempts to use FU when none available
system.cpu.iq.fu_full::SimdFloatMultAcc             0      0.00%    100.00% # attempts to use FU when none available
system.cpu.iq.fu_full::SimdFloatSqrt                0      0.00%    100.00% # attempts to use FU when none available
system.cpu.iq.fu_full::SimdReduceAdd                0      0.00%    100.00% # attempts to use FU when none available
system.cpu.iq.fu_full::SimdReduceAlu                0      0.00%    100.00% # attempts to use FU when none available
system.cpu.iq.fu_full::SimdReduceCmp                0      0.00%    100.00% # attempts to use FU when none available
system.cpu.iq.fu_full::SimdFloatReduceAdd            0      0.00%    100.00% # attempts to use FU when none available
system.cpu.iq.fu_full::SimdFloatReduceCmp            0      0.00%    100.00% # attempts to use FU when none available
system.cpu.iq.fu_full::SimdAes                      0      0.00%    100.00% # attempts to use FU when none available
system.cpu.iq.fu_full::SimdAesMix                   0      0.00%    100.00% # attempts to use FU when none available
system.cpu.iq.fu_full::SimdSha1Hash                 0      0.00%    100.00% # attempts to use FU when none available
system.cpu.iq.fu_full::SimdSha1Hash2                0      0.00%    100.00% # attempts to use FU when none available
system.cpu.iq.fu_full::SimdSha256Hash               0      0.00%    100.00% # attempts to use FU when none available
system.cpu.iq.fu_full::SimdSha256Hash2              0      0.00%    100.00% # attempts to use FU when none available
system.cpu.iq.fu_full::SimdShaSigma2                0      0.00%    100.00% # attempts to use FU when none available
system.cpu.iq.fu_full::SimdShaSigma3                0      0.00%    100.00% # attempts to use FU when none available
system.cpu.iq.fu_full::SimdPredAlu                  0      0.00%    100.00% # attempts to use FU when none available
system.cpu.iq.fu_full::MemRead                      0      0.00%    100.00% # attempts to use FU when none available
system.cpu.iq.fu_full::MemWrite                     0      0.00%    100.00% # attempts to use FU when none available
system.cpu.iq.fu_full::FloatMemRead                 0      0.00%    100.00% # attempts to use FU when none available
system.cpu.iq.fu_full::FloatMemWrite                0      0.00%    100.00% # attempts to use FU when none available
system.cpu.iq.fu_full::IprAccess                    0      0.00%    100.00% # attempts to use FU when none available
system.cpu.iq.fu_full::InstPrefetch                 0      0.00%    100.00% # attempts to use FU when none available
system.cpu.iq.int_alu_accesses                 154054                       # Number of integer alu accesses
system.cpu.iq.int_inst_queue_reads             390968                       # Number of integer instruction queue reads
system.cpu.iq.int_inst_queue_wakeup_accesses       158022                       # Number of integer instruction queue wakeup accesses
system.cpu.iq.int_inst_queue_writes            163493                       # Number of integer instruction queue writes
system.cpu.iq.iqInstsAdded                     159550                       # Number of instructions added to the IQ (excludes non-spec)
system.cpu.iq.iqInstsIssued                    158153                       # Number of instructions issued
system.cpu.iq.iqNonSpecInstsAdded                  48                       # Number of non-speculative instructions added to the IQ
system.cpu.iq.iqSquashedInstsExamined            3895                       # Number of squashed instructions iterated over during squash; mainly for profiling
system.cpu.iq.iqSquashedInstsIssued               213                       # Number of squashed instructions issued
system.cpu.iq.iqSquashedNonSpecRemoved             47                       # Number of squashed non-spec instructions that were removed
system.cpu.iq.iqSquashedOperandsExamined         4560                       # Number of squashed operands that are examined and possibly removed from graph
system.cpu.iq.issued_per_cycle::samples         74352                       # Number of insts issued each cycle
system.cpu.iq.issued_per_cycle::mean         2.127085                       # Number of insts issued each cycle
system.cpu.iq.issued_per_cycle::stdev        1.352705                       # Number of insts issued each cycle
system.cpu.iq.issued_per_cycle::underflows            0      0.00%      0.00% # Number of insts issued each cycle
system.cpu.iq.issued_per_cycle::0                 613      0.82%      0.82% # Number of insts issued each cycle
system.cpu.iq.issued_per_cycle::1               33408     44.93%     45.76% # Number of insts issued each cycle
system.cpu.iq.issued_per_cycle::2               16278     21.89%     67.65% # Number of insts issued each cycle
system.cpu.iq.issued_per_cycle::3               10337     13.90%     81.55% # Number of insts issued each cycle
system.cpu.iq.issued_per_cycle::4                9220     12.40%     93.95% # Number of insts issued each cycle
system.cpu.iq.issued_per_cycle::5                3058      4.11%     98.07% # Number of insts issued each cycle
system.cpu.iq.issued_per_cycle::6                1169      1.57%     99.64% # Number of insts issued each cycle
system.cpu.iq.issued_per_cycle::7                 158      0.21%     99.85% # Number of insts issued each cycle
system.cpu.iq.issued_per_cycle::8                 111      0.15%    100.00% # Number of insts issued each cycle
system.cpu.iq.issued_per_cycle::overflows            0      0.00%    100.00% # Number of insts issued each cycle
system.cpu.iq.issued_per_cycle::min_value            0                       # Number of insts issued each cycle
system.cpu.iq.issued_per_cycle::max_value            8                       # Number of insts issued each cycle
system.cpu.iq.issued_per_cycle::total           74352                       # Number of insts issued each cycle
system.cpu.iq.rate                           2.127085                       # Inst issue rate
system.cpu.iq.vec_alu_accesses                      0                       # Number of vector alu accesses
system.cpu.iq.vec_inst_queue_reads                  0                       # Number of vector instruction queue reads
system.cpu.iq.vec_inst_queue_wakeup_accesses            0                       # Number of vector instruction queue wakeup accesses
system.cpu.iq.vec_inst_queue_writes                 0                       # Number of vector instruction queue writes
system.cpu.memDep0.conflictingLoads                 0                       # Number of conflicting loads.
system.cpu.memDep0.conflictingStores                0                       # Number of conflicting stores.
system.cpu.memDep0.insertedLoads                  304                       # Number of loads inserted to the mem dependence unit.
system.cpu.memDep0.insertedStores                 511                       # Number of stores inserted to the mem dependence unit.
system.cpu.misc_regfile_reads                    9168                       # number of misc regfile reads
system.cpu.numCycles                            74352                       # number of cpu cycles simulated
system.cpu.numWorkItemsCompleted                    0                       # number of work items this cpu completed
system.cpu.numWorkItemsStarted                      0                       # number of work items this cpu started
system.cpu.workload.numSyscalls                     0                       # Number of system calls
system.l1_to_l2.snoop_filter.hit_multi_requests            0                       # Number of requests hitting in the snoop filter with multiple (>1) holders of the requested data.
system.l1_to_l2.snoop_filter.hit_multi_snoops            0                       # Number of snoops hitting in the snoop filter with multiple (>1) holders of the requested data.
system.l1_to_l2.snoop_filter.hit_single_requests            3                       # Number of requests hitting in the snoop filter with a single holder of the requested data.
system.l1_to_l2.snoop_filter.hit_single_snoops            0                       # Number of snoops hitting in the snoop filter with a single holder of the requested data.
system.l1_to_l2.snoop_filter.tot_requests           14                       # Total number of requests made to the snoop filter.
system.l1_to_l2.snoop_filter.tot_snoops             0                       # Total number of snoops made to the snoop filter.
system.membus.snoop_filter.hit_multi_requests            0                       # Number of requests hitting in the snoop filter with multiple (>1) holders of the requested data.
system.membus.snoop_filter.hit_multi_snoops            0                       # Number of snoops hitting in the snoop filter with multiple (>1) holders of the requested data.
system.membus.snoop_filter.hit_single_requests            0                       # Number of requests hitting in the snoop filter with a single holder of the requested data.
system.membus.snoop_filter.hit_single_snoops            0                       # Number of snoops hitting in the snoop filter with a single holder of the requested data.
system.membus.snoop_filter.tot_requests            11                       # Total number of requests made to the snoop filter.
system.membus.snoop_filter.tot_snoops               0                       # Total number of snoops made to the snoop filter.
system.clk_domain.clock                          1000                       # Clock period in ticks
system.clk_domain.voltage_domain.voltage            1                       # Voltage in Volts
system.cpu.branchPred.lookups                    8701                       # Number of BP lookups
system.cpu.branchPred.condPredicted              8444                       # Number of conditional branches predicted
system.cpu.branchPred.condIncorrect                53                       # Number of conditional branches incorrect
system.cpu.branchPred.BTBLookups                 4476                       # Number of BTB lookups
system.cpu.branchPred.BTBHits                    4199                       # Number of BTB hits
system.cpu.branchPred.BTBHitPct             93.811439                       # BTB Hit Percentage
system.cpu.branchPred.RASUsed                      96                       # Number of times the RAS was used to get a target.
system.cpu.branchPred.RASIncorrect                  0                       # Number of incorrect RAS predictions.
system.cpu.branchPred.indirectLookups               5                       # Number of indirect predictor lookups.
system.cpu.branchPred.indirectHits                  0                       # Number of indirect target hits.
system.cpu.branchPred.indirectMisses                5                       # Number of indirect misses.
system.cpu.branchPred.indirectMispredicted            0                       # Number of mispredicted indirect branches.
system.cpu.commit.commitSquashedInsts            3895                       # The number of squashed insts skipped by commit
system.cpu.commit.commitNonSpecStalls               1                       # The number of times commit has been forced to stall to communicate backwards
system.cpu.commit.branchMispredicts                48                       # The number of times a branch was mispredicted
system.cpu.commit.numCommittedDist::samples        73834                       # Number of insts commited each cycle
system.cpu.commit.numCommittedDist::mean     2.108432                       # Number of insts commited each cycle
system.cpu.commit.numCommittedDist::stdev     2.058389                       # Number of insts commited each cycle
system.cpu.commit.numCommittedDist::underflows            0      0.00%      0.00% # Number of insts commited each cycle
system.cpu.commit.numCommittedDist::0             292      0.40%      0.40% # Number of insts commited each cycle
system.cpu.commit.numCommittedDist::1           53009     71.79%     72.19% # Number of insts commited each cycle
system.cpu.commit.numCommittedDist::2              97      0.13%     72.32% # Number of insts commited each cycle
system.cpu.commit.numCommittedDist::3            8098     10.97%     83.29% # Number of insts commited each cycle
system.cpu.commit.numCommittedDist::4              47      0.06%     83.35% # Number of insts commited each cycle
system.cpu.commit.numCommittedDist::5            4049      5.48%     88.84% # Number of insts commited each cycle
system.cpu.commit.numCommittedDist::6            4096      5.55%     94.38% # Number of insts commited each cycle
system.cpu.commit.numCommittedDist::7               0      0.00%     94.38% # Number of insts commited each cycle
system.cpu.commit.numCommittedDist::8            4146      5.62%    100.00% # Number of insts commited each cycle
system.cpu.commit.numCommittedDist::overflows            0      0.00%    100.00% # Number of insts commited each cycle
system.cpu.commit.numCommittedDist::min_value            0                       # Number of insts commited each cycle
system.cpu.commit.numCommittedDist::max_value            8                       # Number of insts commited each cycle
system.cpu.commit.numCommittedDist::total        73834                       # Number of insts commited each cycle
system.cpu.commit.instsCommitted                20492                       # Number of instructions committed
system.cpu.commit.opsCommitted                 155674                       # Number of ops (including micro ops) committed
system.cpu.commit.memRefs                           2                       # Number of memory references committed
system.cpu.commit.loads                             1                       # Number of loads committed
system.cpu.commit.amos                              0                       # Number of atomic instructions committed
system.cpu.commit.membars                           0                       # Number of memory barriers committed
system.cpu.commit.branches                       8196                       # Number of branches committed
system.cpu.commit.vector                            0                       # Number of committed Vector instructions.
system.cpu.commit.floating                          0                       # Number of committed floating point instructions.
system.cpu.commit.integer                      151577                       # Number of committed integer instructions.
system.cpu.commit.functionCalls                     1                       # Number of function calls committed.
system.cpu.commit.committedInstType_0::No_OpClass         4097      2.63%      2.63% # Class of committed instruction
system.cpu.commit.committedInstType_0::IntAlu       122902     78.95%     81.58% # Class of committed instruction
system.cpu.commit.committedInstType_0::IntMult            1      0.00%     81.58% # Class of committed instruction
system.cpu.commit.committedInstType_0::IntDiv        28672     18.42%    100.00% # Class of committed instruction
system.cpu.commit.committedInstType_0::FloatAdd            0      0.00%    100.00% # Class of committed instruction
system.cpu.commit.committedInstType_0::FloatCmp            0      0.00%    100.00% # Class of committed instruction
system.cpu.commit.committedInstType_0::FloatCvt            0      0.00%    100.00% # Class of committed instruction
system.cpu.commit.committedInstType_0::FloatMult            0      0.00%    100.00% # Class of committed instruction
system.cpu.commit.committedInstType_0::FloatMultAcc            0      0.00%    100.00% # Class of committed instruction
system.cpu.commit.committedInstType_0::FloatDiv            0      0.00%    100.00% # Class of committed instruction
system.cpu.commit.committedInstType_0::FloatMisc            0      0.00%    100.00% # Class of committed instruction
system.cpu.commit.committedInstType_0::FloatSqrt            0      0.00%    100.00% # Class of committed instruction
system.cpu.commit.committedInstType_0::SimdAdd            0      0.00%    100.00% # Class of committed instruction
system.cpu.commit.committedInstType_0::SimdAddAcc            0      0.00%    100.00% # Class of committed instruction
system.cpu.commit.committedInstType_0::SimdAlu            0      0.00%    100.00% # Class of committed instruction
system.cpu.commit.committedInstType_0::SimdCmp            0      0.00%    100.00% # Class of committed instruction
system.cpu.commit.committedInstType_0::SimdCvt            0      0.00%    100.00% # Class of committed instruction
system.cpu.commit.committedInstType_0::SimdMisc            0      0.00%    100.00% # Class of committed instruction
system.cpu.commit.committedInstType_0::SimdMult            0      0.00%    100.00% # Class of committed instruction
system.cpu.commit.committedInstType_0::SimdMultAcc            0      0.00%    100.00% # Class of committed instruction
system.cpu.commit.committedInstType_0::SimdShift            0      0.00%    100.00% # Class of committed instruction
system.cpu.commit.committedInstType_0::SimdShiftAcc            0      0.00%    100.00% # Class of committed instruction
system.cpu.commit.committedInstType_0::SimdDiv            0      0.00%    100.00% # Class of committed instruction
system.cpu.commit.committedInstType_0::SimdSqrt            0      0.00%    100.00% # Class of committed instruction
system.cpu.commit.committedInstType_0::SimdFloatAdd            0      0.00%    100.00% # Class of committed instruction
system.cpu.commit.committedInstType_0::SimdFloatAlu            0      0.00%    100.00% # Class of committed instruction
system.cpu.commit.committedInstType_0::SimdFloatCmp            0      0.00%    100.00% # Class of committed instruction
system.cpu.commit.committedInstType_0::SimdFloatCvt            0      0.00%    100.00% # Class of committed instruction
system.cpu.commit.committedInstType_0::SimdFloatDiv            0      0.00%    100.00% # Class of committed instruction
system.cpu.commit.committedInstType_0::SimdFloatMisc            0      0.00%    100.00% # Class of committed instruction
system.cpu.commit.committedInstType_0::SimdFloatMult            0      0.00%    100.00% # Class of committed instruction
system.cpu.commit.committedInstType_0::SimdFloatMultAcc            0      0.00%    100.00% # Class of committed instruction
system.cpu.commit.committedInstType_0::SimdFloatSqrt            0      0.00%    100.00% # Class of committed instruction
system.cpu.commit.committedInstType_0::SimdReduceAdd            0      0.00%    100.00% # Class of committed instruction
system.cpu.commit.committedInstType_0::SimdReduceAlu            0      0.00%    100.00% # Class of committed instruction
system.cpu.commit.committedInstType_0::SimdReduceCmp            0      0.00%    100.00% # Class of committed instruction
system.cpu.commit.committedInstType_0::SimdFloatReduceAdd            0      0.00%    100.00% # Class of committed instruction
system.cpu.commit.committedInstType_0::SimdFloatReduceCmp            0      0.00%    100.00% # Class of committed instruction
system.cpu.commit.committedInstType_0::SimdAes            0      0.00%    100.00% # Class of committed instruction
system.cpu.commit.committedInstType_0::SimdAesMix            0      0.00%    100.00% # Class of committed instruction
system.cpu.commit.committedInstType_0::SimdSha1Hash            0      0.00%    100.00% # Class of committed instruction
system.cpu.commit.committedInstType_0::SimdSha1Hash2            0      0.00%    100.00% # Class of committed instruction
system.cpu.commit.committedInstType_0::SimdSha256Hash            0      0.00%    100.00% # Class of committed instruction
system.cpu.commit.committedInstType_0::SimdSha256Hash2            0      0.00%    100.00% # Class of committed instruction
system.cpu.commit.committedInstType_0::SimdShaSigma2            0      0.00%    100.00% # Class of committed instruction
system.cpu.commit.committedInstType_0::SimdShaSigma3            0      0.00%    100.00% # Class of committed instruction
system.cpu.commit.committedInstType_0::SimdPredAlu            0      0.00%    100.00% # Class of committed instruction
system.cpu.commit.committedInstType_0::MemRead            1      0.00%    100.00% # Class of committed instruction
system.cpu.commit.committedInstType_0::MemWrite            1      0.00%    100.00% # Class of committed instruction
system.cpu.commit.committedInstType_0::FloatMemRead            0      0.00%    100.00% # Class of committed instruction
system.cpu.commit.committedInstType_0::FloatMemWrite            0      0.00%    100.00% # Class of committed instruction
system.cpu.commit.committedInstType_0::IprAccess            0      0.00%    100.00% # Class of committed instruction
system.cpu.commit.committedInstType_0::InstPrefetch            0      0.00%    100.00% # Class of committed instruction
system.cpu.commit.committedInstType_0::total       155674                       # Class of committed instruction
system.cpu.commit.commitEligibleSamples          4146                       # number cycles where commit BW limit reached
system.cpu.decode.idleCycles                     7298                       # Number of cycles decode is idle
system.cpu.decode.blockedCycles                 46962                       # Number of cycles decode is blocked
system.cpu.decode.runCycles                       740                       # Number of cycles decode is running
system.cpu.decode.unblockCycles                 19304                       # Number of cycles decode is unblocking
system.cpu.decode.squashCycles                     48                       # Number of cycles decode is squashing
system.cpu.decode.branchResolved                 4202                       # Number of times decode resolved a  branch
system.cpu.decode.branchMispred                     5                       # Number of times decode detected a branch misprediction
system.cpu.decode.decodedInsts                 160071                       # Number of instructions handled by decode
system.cpu.decode.squashedInsts                    25                       # Number of squashed instructions handled by decode
system.cpu.dtb.rdAccesses                         225                       # TLB accesses on read requests
system.cpu.dtb.wrAccesses                         159                       # TLB accesses on write requests
system.cpu.dtb.rdMisses                             0                       # TLB misses on read requests
system.cpu.dtb.wrMisses                             0                       # TLB misses on write requests
system.cpu.dtb.walker.power_state.pwrStateResidencyTicks::UNDEFINED    106627000                       # Cumulative time (in ticks) in various power states
system.cpu.fetch.icacheStallCycles                114                       # Number of cycles fetch is stalled on an Icache miss
system.cpu.fetch.insts                          22820                       # Number of instructions fetch has processed
system.cpu.fetch.branches                        8701                       # Number of branches that fetch encountered
system.cpu.fetch.predictedBranches               4295                       # Number of branches that fetch has predicted taken
system.cpu.fetch.cycles                         74177                       # Number of cycles fetch has run and was not squashing or blocked
system.cpu.fetch.squashCycles                     106                       # Number of cycles fetch has spent squashing
system.cpu.fetch.pendingQuiesceStallCycles            8                       # Number of stall cycles due to pending quiesce instructions
system.cpu.fetch.cacheLines                       486                       # Number of cache lines fetched
system.cpu.fetch.icacheSquashes                    13                       # Number of outstanding Icache misses that were squashed
system.cpu.fetch.nisnDist::samples              74352                       # Number of instructions fetched each cycle (Total)
system.cpu.fetch.nisnDist::mean              2.157548                       # Number of instructions fetched each cycle (Total)
system.cpu.fetch.nisnDist::stdev             3.386470                       # Number of instructions fetched each cycle (Total)
system.cpu.fetch.nisnDist::underflows               0      0.00%      0.00% # Number of instructions fetched each cycle (Total)
system.cpu.fetch.nisnDist::0                    51086     68.71%     68.71% # Number of instructions fetched each cycle (Total)
system.cpu.fetch.nisnDist::1                      122      0.16%     68.87% # Number of instructions fetched each cycle (Total)
system.cpu.fetch.nisnDist::2                     2021      2.72%     71.59% # Number of instructions fetched each cycle (Total)
system.cpu.fetch.nisnDist::3                       21      0.03%     71.62% # Number of instructions fetched each cycle (Total)
system.cpu.fetch.nisnDist::4                     2079      2.80%     74.41% # Number of instructions fetched each cycle (Total)
system.cpu.fetch.nisnDist::5                       20      0.03%     74.44% # Number of instructions fetched each cycle (Total)
system.cpu.fetch.nisnDist::6                     2082      2.80%     77.24% # Number of instructions fetched each cycle (Total)
system.cpu.fetch.nisnDist::7                       85      0.11%     77.36% # Number of instructions fetched each cycle (Total)
system.cpu.fetch.nisnDist::8                    16836     22.64%    100.00% # Number of instructions fetched each cycle (Total)
system.cpu.fetch.nisnDist::overflows                0      0.00%    100.00% # Number of instructions fetched each cycle (Total)
system.cpu.fetch.nisnDist::min_value                0                       # Number of instructions fetched each cycle (Total)
system.cpu.fetch.nisnDist::max_value                8                       # Number of instructions fetched each cycle (Total)
system.cpu.fetch.nisnDist::total                74352                       # Number of instructions fetched each cycle (Total)
system.cpu.fetch.branchRate                  0.117024                       # Number of branch fetches per cycle
system.cpu.fetch.rate                        0.306918                       # Number of inst fetches per cycle
system.cpu.interrupts.clk_domain.clock          16000                       # Clock period in ticks
system.cpu.itb.rdAccesses                           0                       # TLB accesses on read requests
system.cpu.itb.wrAccesses                         486                       # TLB accesses on write requests
system.cpu.itb.rdMisses                             0                       # TLB misses on read requests
system.cpu.itb.wrMisses                             1                       # TLB misses on write requests
system.cpu.itb.walker.power_state.pwrStateResidencyTicks::UNDEFINED    106627000                       # Cumulative time (in ticks) in various power states
system.cpu.l1d.demand_hits::.cpu.data             223                       # number of demand (read+write) hits
system.cpu.l1d.demand_hits::total                 223                       # number of demand (read+write) hits
system.cpu.l1d.overall_hits::.cpu.data            223                       # number of overall hits
system.cpu.l1d.overall_hits::total                223                       # number of overall hits
system.cpu.l1d.demand_misses::.cpu.data             2                       # number of demand (read+write) misses
system.cpu.l1d.demand_misses::total                 2                       # number of demand (read+write) misses
system.cpu.l1d.overall_misses::.cpu.data            2                       # number of overall misses
system.cpu.l1d.overall_misses::total                2                       # number of overall misses
system.cpu.l1d.demand_miss_latency::.cpu.data       168000                       # number of demand (read+write) miss cycles
system.cpu.l1d.demand_miss_latency::total       168000                       # number of demand (read+write) miss cycles
system.cpu.l1d.overall_miss_latency::.cpu.data       168000                       # number of overall miss cycles
system.cpu.l1d.overall_miss_latency::total       168000                       # number of overall miss cycles
system.cpu.l1d.demand_accesses::.cpu.data          225                       # number of demand (read+write) accesses
system.cpu.l1d.demand_accesses::total             225                       # number of demand (read+write) accesses
system.cpu.l1d.overall_accesses::.cpu.data          225                       # number of overall (read+write) accesses
system.cpu.l1d.overall_accesses::total            225                       # number of overall (read+write) accesses
system.cpu.l1d.demand_miss_rate::.cpu.data     0.008889                       # miss rate for demand accesses
system.cpu.l1d.demand_miss_rate::total       0.008889                       # miss rate for demand accesses
system.cpu.l1d.overall_miss_rate::.cpu.data     0.008889                       # miss rate for overall accesses
system.cpu.l1d.overall_miss_rate::total      0.008889                       # miss rate for overall accesses
system.cpu.l1d.demand_avg_miss_latency::.cpu.data        84000                       # average overall miss latency
system.cpu.l1d.demand_avg_miss_latency::total        84000                       # average overall miss latency
system.cpu.l1d.overall_avg_miss_latency::.cpu.data        84000                       # average overall miss latency
system.cpu.l1d.overall_avg_miss_latency::total        84000                       # average overall miss latency
system.cpu.l1d.blocked_cycles::no_mshrs             0                       # number of cycles access was blocked
system.cpu.l1d.blocked_cycles::no_targets            0                       # number of cycles access was blocked
system.cpu.l1d.blocked::no_mshrs                    0                       # number of cycles access was blocked
system.cpu.l1d.blocked::no_targets                  0                       # number of cycles access was blocked
system.cpu.l1d.avg_blocked_cycles::no_mshrs          nan                       # average number of cycles each access was blocked
system.cpu.l1d.avg_blocked_cycles::no_targets          nan                       # average number of cycles each access was blocked
system.cpu.l1d.demand_mshr_misses::.cpu.data            2                       # number of demand (read+write) MSHR misses
system.cpu.l1d.demand_mshr_misses::total            2                       # number of demand (read+write) MSHR misses
system.cpu.l1d.overall_mshr_misses::.cpu.data            2                       # number of overall MSHR misses
system.cpu.l1d.overall_mshr_misses::total            2                       # number of overall MSHR misses
system.cpu.l1d.demand_mshr_miss_latency::.cpu.data       166000                       # number of demand (read+write) MSHR miss cycles
system.cpu.l1d.demand_mshr_miss_latency::total       166000                       # number of demand (read+write) MSHR miss cycles
system.cpu.l1d.overall_mshr_miss_latency::.cpu.data       166000                       # number of overall MSHR miss cycles
system.cpu.l1d.overall_mshr_miss_latency::total       166000                       # number of overall MSHR miss cycles
system.cpu.l1d.demand_mshr_miss_rate::.cpu.data     0.008889                       # mshr miss rate for demand accesses
system.cpu.l1d.demand_mshr_miss_rate::total     0.008889                       # mshr miss rate for demand accesses
system.cpu.l1d.overall_mshr_miss_rate::.cpu.data     0.008889                       # mshr miss rate for overall accesses
system.cpu.l1d.overall_mshr_miss_rate::total     0.008889                       # mshr miss rate for overall accesses
system.cpu.l1d.demand_avg_mshr_miss_latency::.cpu.data        83000                       # average overall mshr miss latency
system.cpu.l1d.demand_avg_mshr_miss_latency::total        83000                       # average overall mshr miss latency
system.cpu.l1d.overall_avg_mshr_miss_latency::.cpu.data        83000                       # average overall mshr miss latency
system.cpu.l1d.overall_avg_mshr_miss_latency::total        83000                       # average overall mshr miss latency
system.cpu.l1d.replacements                         0                       # number of replacements
system.cpu.l1d.ReadReq_hits::.cpu.data            222                       # number of ReadReq hits
system.cpu.l1d.ReadReq_hits::total                222                       # number of ReadReq hits
system.cpu.l1d.ReadReq_misses::.cpu.data            2                       # number of ReadReq misses
system.cpu.l1d.ReadReq_misses::total                2                       # number of ReadReq misses
system.cpu.l1d.ReadReq_miss_latency::.cpu.data       168000                       # number of ReadReq miss cycles
system.cpu.l1d.ReadReq_miss_latency::total       168000                       # number of ReadReq miss cycles
system.cpu.l1d.ReadReq_accesses::.cpu.data          224                       # number of ReadReq accesses(hits+misses)
system.cpu.l1d.ReadReq_accesses::total            224                       # number of ReadReq accesses(hits+misses)
system.cpu.l1d.ReadReq_miss_rate::.cpu.data     0.008929                       # miss rate for ReadReq accesses
system.cpu.l1d.ReadReq_miss_rate::total      0.008929                       # miss rate for ReadReq accesses
system.cpu.l1d.ReadReq_avg_miss_latency::.cpu.data        84000                       # average ReadReq miss latency
system.cpu.l1d.ReadReq_avg_miss_latency::total        84000                       # average ReadReq miss latency
system.cpu.l1d.ReadReq_mshr_misses::.cpu.data            2                       # number of ReadReq MSHR misses
system.cpu.l1d.ReadReq_mshr_misses::total            2                       # number of ReadReq MSHR misses
system.cpu.l1d.ReadReq_mshr_miss_latency::.cpu.data       166000                       # number of ReadReq MSHR miss cycles
system.cpu.l1d.ReadReq_mshr_miss_latency::total       166000                       # number of ReadReq MSHR miss cycles
system.cpu.l1d.ReadReq_mshr_miss_rate::.cpu.data     0.008929                       # mshr miss rate for ReadReq accesses
system.cpu.l1d.ReadReq_mshr_miss_rate::total     0.008929                       # mshr miss rate for ReadReq accesses
system.cpu.l1d.ReadReq_avg_mshr_miss_latency::.cpu.data        83000                       # average ReadReq mshr miss latency
system.cpu.l1d.ReadReq_avg_mshr_miss_latency::total        83000                       # average ReadReq mshr miss latency
system.cpu.l1d.WriteReq_hits::.cpu.data             1                       # number of WriteReq hits
system.cpu.l1d.WriteReq_hits::total                 1                       # number of WriteReq hits
system.cpu.l1d.WriteReq_accesses::.cpu.data            1                       # number of WriteReq accesses(hits+misses)
system.cpu.l1d.WriteReq_accesses::total             1                       # number of WriteReq accesses(hits+misses)
system.cpu.l1d.power_state.pwrStateResidencyTicks::UNDEFINED    106627000                       # Cumulative time (in ticks) in various power states
system.cpu.l1d.tags.tagsinuse              221.985811                       # Cycle average of tags in use
system.cpu.l1d.tags.total_refs                      0                       # Total number of references to valid blocks.
system.cpu.l1d.tags.sampled_refs                    0                       # Sample count of references to valid blocks.
system.cpu.l1d.tags.avg_refs                      nan                       # Average number of references to valid blocks.
system.cpu.l1d.tags.warmup_cycle                    0                       # Cycle when the warmup percentage was hit.
system.cpu.l1d.tags.occ_blocks::.cpu.data   221.985811                       # Average occupied blocks per requestor
system.cpu.l1d.tags.occ_percent::.cpu.data     0.433566                       # Average percentage of cache occupancy
system.cpu.l1d.tags.occ_percent::total       0.433566                       # Average percentage of cache occupancy
system.cpu.l1d.tags.occ_task_id_blocks::1024          222                       # Occupied blocks per task id
system.cpu.l1d.tags.age_task_id_blocks_1024::1          174                       # Occupied blocks per task id
system.cpu.l1d.tags.age_task_id_blocks_1024::2           48                       # Occupied blocks per task id
system.cpu.l1d.tags.occ_task_id_percent::1024     0.433594                       # Percentage of cache occupancy per task id
system.cpu.l1d.tags.tag_accesses                 1802                       # Number of tag accesses
system.cpu.l1d.tags.data_accesses                1802                       # Number of data accesses
system.cpu.l1d.tags.power_state.pwrStateResidencyTicks::UNDEFINED    106627000                       # Cumulative time (in ticks) in various power states
system.cpu.l1i.demand_hits::.cpu.inst             473                       # number of demand (read+write) hits
system.cpu.l1i.demand_hits::total                 473                       # number of demand (read+write) hits
system.cpu.l1i.overall_hits::.cpu.inst            473                       # number of overall hits
system.cpu.l1i.overall_hits::total                473                       # number of overall hits
system.cpu.l1i.demand_misses::.cpu.inst            13                       # number of demand (read+write) misses
system.cpu.l1i.demand_misses::total                13                       # number of demand (read+write) misses
system.cpu.l1i.overall_misses::.cpu.inst           13                       # number of overall misses
system.cpu.l1i.overall_misses::total               13                       # number of overall misses
system.cpu.l1i.demand_miss_latency::.cpu.inst       708000                       # number of demand (read+write) miss cycles
system.cpu.l1i.demand_miss_latency::total       708000                       # number of demand (read+write) miss cycles
system.cpu.l1i.overall_miss_latency::.cpu.inst       708000                       # number of overall miss cycles
system.cpu.l1i.overall_miss_latency::total       708000                       # number of overall miss cycles
system.cpu.l1i.demand_accesses::.cpu.inst          486                       # number of demand (read+write) accesses
system.cpu.l1i.demand_accesses::total             486                       # number of demand (read+write) accesses
system.cpu.l1i.overall_accesses::.cpu.inst          486                       # number of overall (read+write) accesses
system.cpu.l1i.overall_accesses::total            486                       # number of overall (read+write) accesses
system.cpu.l1i.demand_miss_rate::.cpu.inst     0.026749                       # miss rate for demand accesses
system.cpu.l1i.demand_miss_rate::total       0.026749                       # miss rate for demand accesses
system.cpu.l1i.overall_miss_rate::.cpu.inst     0.026749                       # miss rate for overall accesses
system.cpu.l1i.overall_miss_rate::total      0.026749                       # miss rate for overall accesses
system.cpu.l1i.demand_avg_miss_latency::.cpu.inst 54461.538462                       # average overall miss latency
system.cpu.l1i.demand_avg_miss_latency::total 54461.538462                       # average overall miss latency
system.cpu.l1i.overall_avg_miss_latency::.cpu.inst 54461.538462                       # average overall miss latency
system.cpu.l1i.overall_avg_miss_latency::total 54461.538462                       # average overall miss latency
system.cpu.l1i.blocked_cycles::no_mshrs             0                       # number of cycles access was blocked
system.cpu.l1i.blocked_cycles::no_targets            0                       # number of cycles access was blocked
system.cpu.l1i.blocked::no_mshrs                    0                       # number of cycles access was blocked
system.cpu.l1i.blocked::no_targets                  0                       # number of cycles access was blocked
system.cpu.l1i.avg_blocked_cycles::no_mshrs          nan                       # average number of cycles each access was blocked
system.cpu.l1i.avg_blocked_cycles::no_targets          nan                       # average number of cycles each access was blocked
system.cpu.l1i.demand_mshr_hits::.cpu.inst            4                       # number of demand (read+write) MSHR hits
system.cpu.l1i.demand_mshr_hits::total              4                       # number of demand (read+write) MSHR hits
system.cpu.l1i.overall_mshr_hits::.cpu.inst            4                       # number of overall MSHR hits
system.cpu.l1i.overall_mshr_hits::total             4                       # number of overall MSHR hits
system.cpu.l1i.demand_mshr_misses::.cpu.inst            9                       # number of demand (read+write) MSHR misses
system.cpu.l1i.demand_mshr_misses::total            9                       # number of demand (read+write) MSHR misses
system.cpu.l1i.overall_mshr_misses::.cpu.inst            9                       # number of overall MSHR misses
system.cpu.l1i.overall_mshr_misses::total            9                       # number of overall MSHR misses
system.cpu.l1i.demand_mshr_miss_latency::.cpu.inst       590000                       # number of demand (read+write) MSHR miss cycles
system.cpu.l1i.demand_mshr_miss_latency::total       590000                       # number of demand (read+write) MSHR miss cycles
system.cpu.l1i.overall_mshr_miss_latency::.cpu.inst       590000                       # number of overall MSHR miss cycles
system.cpu.l1i.overall_mshr_miss_latency::total       590000                       # number of overall MSHR miss cycles
system.cpu.l1i.demand_mshr_miss_rate::.cpu.inst     0.018519                       # mshr miss rate for demand accesses
system.cpu.l1i.demand_mshr_miss_rate::total     0.018519                       # mshr miss rate for demand accesses
system.cpu.l1i.overall_mshr_miss_rate::.cpu.inst     0.018519                       # mshr miss rate for overall accesses
system.cpu.l1i.overall_mshr_miss_rate::total     0.018519                       # mshr miss rate for overall accesses
system.cpu.l1i.demand_avg_mshr_miss_latency::.cpu.inst 65555.555556                       # average overall mshr miss latency
system.cpu.l1i.demand_avg_mshr_miss_latency::total 65555.555556                       # average overall mshr miss latency
system.cpu.l1i.overall_avg_mshr_miss_latency::.cpu.inst 65555.555556                       # average overall mshr miss latency
system.cpu.l1i.overall_avg_mshr_miss_latency::total 65555.555556                       # average overall mshr miss latency
system.cpu.l1i.replacements                         3                       # number of replacements
system.cpu.l1i.ReadReq_hits::.cpu.inst            473                       # number of ReadReq hits
system.cpu.l1i.ReadReq_hits::total                473                       # number of ReadReq hits
system.cpu.l1i.ReadReq_misses::.cpu.inst           13                       # number of ReadReq misses
system.cpu.l1i.ReadReq_misses::total               13                       # number of ReadReq misses
system.cpu.l1i.ReadReq_miss_latency::.cpu.inst       708000                       # number of ReadReq miss cycles
system.cpu.l1i.ReadReq_miss_latency::total       708000                       # number of ReadReq miss cycles
system.cpu.l1i.ReadReq_accesses::.cpu.inst          486                       # number of ReadReq accesses(hits+misses)
system.cpu.l1i.ReadReq_accesses::total            486                       # number of ReadReq accesses(hits+misses)
system.cpu.l1i.ReadReq_miss_rate::.cpu.inst     0.026749                       # miss rate for ReadReq accesses
system.cpu.l1i.ReadReq_miss_rate::total      0.026749                       # miss rate for ReadReq accesses
system.cpu.l1i.ReadReq_avg_miss_latency::.cpu.inst 54461.538462                       # average ReadReq miss latency
system.cpu.l1i.ReadReq_avg_miss_latency::total 54461.538462                       # average ReadReq miss latency
system.cpu.l1i.ReadReq_mshr_hits::.cpu.inst            4                       # number of ReadReq MSHR hits
system.cpu.l1i.ReadReq_mshr_hits::total             4                       # number of ReadReq MSHR hits
system.cpu.l1i.ReadReq_mshr_misses::.cpu.inst            9                       # number of ReadReq MSHR misses
system.cpu.l1i.ReadReq_mshr_misses::total            9                       # number of ReadReq MSHR misses
system.cpu.l1i.ReadReq_mshr_miss_latency::.cpu.inst       590000                       # number of ReadReq MSHR miss cycles
system.cpu.l1i.ReadReq_mshr_miss_latency::total       590000                       # number of ReadReq MSHR miss cycles
system.cpu.l1i.ReadReq_mshr_miss_rate::.cpu.inst     0.018519                       # mshr miss rate for ReadReq accesses
system.cpu.l1i.ReadReq_mshr_miss_rate::total     0.018519                       # mshr miss rate for ReadReq accesses
system.cpu.l1i.ReadReq_avg_mshr_miss_latency::.cpu.inst 65555.555556                       # average ReadReq mshr miss latency
system.cpu.l1i.ReadReq_avg_mshr_miss_latency::total 65555.555556                       # average ReadReq mshr miss latency
system.cpu.l1i.power_state.pwrStateResidencyTicks::UNDEFINED    106627000                       # Cumulative time (in ticks) in various power states
system.cpu.l1i.tags.tagsinuse              418.969954                       # Cycle average of tags in use
system.cpu.l1i.tags.total_refs                      3                       # Total number of references to valid blocks.
system.cpu.l1i.tags.sampled_refs                    3                       # Sample count of references to valid blocks.
system.cpu.l1i.tags.avg_refs                        1                       # Average number of references to valid blocks.
system.cpu.l1i.tags.warmup_cycle                    0                       # Cycle when the warmup percentage was hit.
system.cpu.l1i.tags.occ_blocks::.cpu.inst   418.969954                       # Average occupied blocks per requestor
system.cpu.l1i.tags.occ_percent::.cpu.inst     0.818301                       # Average percentage of cache occupancy
system.cpu.l1i.tags.occ_percent::total       0.818301                       # Average percentage of cache occupancy
system.cpu.l1i.tags.occ_task_id_blocks::1024          419                       # Occupied blocks per task id
system.cpu.l1i.tags.age_task_id_blocks_1024::1          349                       # Occupied blocks per task id
system.cpu.l1i.tags.age_task_id_blocks_1024::2           70                       # Occupied blocks per task id
system.cpu.l1i.tags.occ_task_id_percent::1024     0.818359                       # Percentage of cache occupancy per task id
system.cpu.l1i.tags.tag_accesses                 3897                       # Number of tag accesses
system.cpu.l1i.tags.data_accesses                3897                       # Number of data accesses
system.cpu.l1i.tags.power_state.pwrStateResidencyTicks::UNDEFINED    106627000                       # Cumulative time (in ticks) in various power states
system.cpu.lsq0.forwLoads                           1                       # Number of loads that had data forwarded from stores
system.cpu.lsq0.squashedLoads                     300                       # Number of loads squashed
system.cpu.lsq0.ignoredResponses                    0                       # Number of memory responses ignored because the instruction is squashed
system.cpu.lsq0.memOrderViolation                   0                       # Number of memory ordering violations
system.cpu.lsq0.squashedStores                    501                       # Number of stores squashed
system.cpu.lsq0.rescheduledLoads                    0                       # Number of loads that were rescheduled
system.cpu.lsq0.blockedByCache                      0                       # Number of times an access to memory failed due to the cache being blocked
system.cpu.power_state.pwrStateResidencyTicks::ON    106627000                       # Cumulative time (in ticks) in various power states
system.cpu.rename.squashCycles                     48                       # Number of cycles rename is squashing
system.cpu.rename.idleCycles                    12377                       # Number of cycles rename is idle
system.cpu.rename.blockCycles                     470                       # Number of cycles rename is blocking
system.cpu.rename.serializeStallCycles              0                       # count of cycles rename stalledfor serializing inst
system.cpu.rename.runCycles                     14964                       # Number of cycles rename is running
system.cpu.rename.unblockCycles                 46493                       # Number of cycles rename is unblocking
system.cpu.rename.renamedInsts                 160049                       # Number of instructions processed by rename
system.cpu.rename.IQFullEvents                  45455                       # Number of times rename has blocked due to IQ full
system.cpu.rename.renamedOperands              250034                       # Number of destination operands rename has renamed
system.cpu.rename.lookups                      599877                       # Number of register rename lookups that rename has made
system.cpu.rename.intLookups                   362669                       # Number of integer rename lookups
system.cpu.rename.committedMaps                245785                       # Number of HB maps that are committed
system.cpu.rename.undoneMaps                     4221                       # Number of HB maps that are undone due to squashing
system.cpu.rename.serializing                       0                       # count of serializing insts renamed
system.cpu.rename.tempSerializing                   0                       # count of temporary serializing insts renamed
system.cpu.rename.skidInsts                     85949                       # count of insts added to the skid buffer
system.cpu.rob.reads                           229257                       # The number of ROB reads
system.cpu.rob.writes                          319693                       # The number of ROB writes
system.cpu.thread_0.numInsts                    20492                       # Number of Instructions committed
system.cpu.thread_0.numOps                     155674                       # Number of Ops committed
system.cpu.thread_0.numMemRefs                      0                       # Number of Memory References
system.l1_to_l2.trans_dist::ReadResp               11                       # Transaction distribution
system.l1_to_l2.trans_dist::CleanEvict              3                       # Transaction distribution
system.l1_to_l2.trans_dist::ReadSharedReq           11                       # Transaction distribution
system.l1_to_l2.pkt_count_system.cpu.l1d.mem_side_port::system.l2cache.cpu_side_port            4                       # Packet count per connected requestor and responder (bytes)
system.l1_to_l2.pkt_count_system.cpu.l1i.mem_side_port::system.l2cache.cpu_side_port           21                       # Packet count per connected requestor and responder (bytes)
system.l1_to_l2.pkt_count::total                   25                       # Packet count per connected requestor and responder (bytes)
system.l1_to_l2.pkt_size_system.cpu.l1d.mem_side_port::system.l2cache.cpu_side_port          128                       # Cumulative packet size per connected requestor and responder (bytes)
system.l1_to_l2.pkt_size_system.cpu.l1i.mem_side_port::system.l2cache.cpu_side_port          576                       # Cumulative packet size per connected requestor and responder (bytes)
system.l1_to_l2.pkt_size::total                   704                       # Cumulative packet size per connected requestor and responder (bytes)
system.l1_to_l2.snoops                              0                       # Total snoops (count)
system.l1_to_l2.snoopTraffic                        0                       # Total snoop traffic (bytes)
system.l1_to_l2.snoop_fanout::samples              11                       # Request fanout histogram
system.l1_to_l2.snoop_fanout::mean                  0                       # Request fanout histogram
system.l1_to_l2.snoop_fanout::stdev                 0                       # Request fanout histogram
system.l1_to_l2.snoop_fanout::underflows            0      0.00%      0.00% # Request fanout histogram
system.l1_to_l2.snoop_fanout::0                    11    100.00%    100.00% # Request fanout histogram
system.l1_to_l2.snoop_fanout::1                     0      0.00%    100.00% # Request fanout histogram
system.l1_to_l2.snoop_fanout::2                     0      0.00%    100.00% # Request fanout histogram
system.l1_to_l2.snoop_fanout::overflows             0      0.00%    100.00% # Request fanout histogram
system.l1_to_l2.snoop_fanout::min_value             0                       # Request fanout histogram
system.l1_to_l2.snoop_fanout::max_value             0                       # Request fanout histogram
system.l1_to_l2.snoop_fanout::total                11                       # Request fanout histogram
system.l1_to_l2.power_state.pwrStateResidencyTicks::UNDEFINED    106627000                       # Cumulative time (in ticks) in various power states
system.l1_to_l2.reqLayer0.occupancy             14000                       # Layer occupancy (ticks)
system.l1_to_l2.reqLayer0.utilization             0.0                       # Layer utilization (%)
system.l1_to_l2.respLayer0.occupancy             4000                       # Layer occupancy (ticks)
system.l1_to_l2.respLayer0.utilization            0.0                       # Layer utilization (%)
system.l1_to_l2.respLayer1.occupancy            18000                       # Layer occupancy (ticks)
system.l1_to_l2.respLayer1.utilization            0.0                       # Layer utilization (%)
system.l2cache.demand_misses::.cpu.inst             9                       # number of demand (read+write) misses
system.l2cache.demand_misses::.cpu.data             2                       # number of demand (read+write) misses
system.l2cache.demand_misses::total                11                       # number of demand (read+write) misses
system.l2cache.overall_misses::.cpu.inst            9                       # number of overall misses
system.l2cache.overall_misses::.cpu.data            2                       # number of overall misses
system.l2cache.overall_misses::total               11                       # number of overall misses
system.l2cache.demand_miss_latency::.cpu.inst       571000                       # number of demand (read+write) miss cycles
system.l2cache.demand_miss_latency::.cpu.data       162000                       # number of demand (read+write) miss cycles
system.l2cache.demand_miss_latency::total       733000                       # number of demand (read+write) miss cycles
system.l2cache.overall_miss_latency::.cpu.inst       571000                       # number of overall miss cycles
system.l2cache.overall_miss_latency::.cpu.data       162000                       # number of overall miss cycles
system.l2cache.overall_miss_latency::total       733000                       # number of overall miss cycles
system.l2cache.demand_accesses::.cpu.inst            9                       # number of demand (read+write) accesses
system.l2cache.demand_accesses::.cpu.data            2                       # number of demand (read+write) accesses
system.l2cache.demand_accesses::total              11                       # number of demand (read+write) accesses
system.l2cache.overall_accesses::.cpu.inst            9                       # number of overall (read+write) accesses
system.l2cache.overall_accesses::.cpu.data            2                       # number of overall (read+write) accesses
system.l2cache.overall_accesses::total             11                       # number of overall (read+write) accesses
system.l2cache.demand_miss_rate::.cpu.inst            1                       # miss rate for demand accesses
system.l2cache.demand_miss_rate::.cpu.data            1                       # miss rate for demand accesses
system.l2cache.demand_miss_rate::total              1                       # miss rate for demand accesses
system.l2cache.overall_miss_rate::.cpu.inst            1                       # miss rate for overall accesses
system.l2cache.overall_miss_rate::.cpu.data            1                       # miss rate for overall accesses
system.l2cache.overall_miss_rate::total             1                       # miss rate for overall accesses
system.l2cache.demand_avg_miss_latency::.cpu.inst 63444.444444                       # average overall miss latency
system.l2cache.demand_avg_miss_latency::.cpu.data        81000                       # average overall miss latency
system.l2cache.demand_avg_miss_latency::total 66636.363636                       # average overall miss latency
system.l2cache.overall_avg_miss_latency::.cpu.inst 63444.444444                       # average overall miss latency
system.l2cache.overall_avg_miss_latency::.cpu.data        81000                       # average overall miss latency
system.l2cache.overall_avg_miss_latency::total 66636.363636                       # average overall miss latency
system.l2cache.blocked_cycles::no_mshrs             0                       # number of cycles access was blocked
system.l2cache.blocked_cycles::no_targets            0                       # number of cycles access was blocked
system.l2cache.blocked::no_mshrs                    0                       # number of cycles access was blocked
system.l2cache.blocked::no_targets                  0                       # number of cycles access was blocked
system.l2cache.avg_blocked_cycles::no_mshrs          nan                       # average number of cycles each access was blocked
system.l2cache.avg_blocked_cycles::no_targets          nan                       # average number of cycles each access was blocked
system.l2cache.demand_mshr_misses::.cpu.inst            9                       # number of demand (read+write) MSHR misses
system.l2cache.demand_mshr_misses::.cpu.data            2                       # number of demand (read+write) MSHR misses
system.l2cache.demand_mshr_misses::total           11                       # number of demand (read+write) MSHR misses
system.l2cache.overall_mshr_misses::.cpu.inst            9                       # number of overall MSHR misses
system.l2cache.overall_mshr_misses::.cpu.data            2                       # number of overall MSHR misses
system.l2cache.overall_mshr_misses::total           11                       # number of overall MSHR misses
system.l2cache.demand_mshr_miss_latency::.cpu.inst       562000                       # number of demand (read+write) MSHR miss cycles
system.l2cache.demand_mshr_miss_latency::.cpu.data       160000                       # number of demand (read+write) MSHR miss cycles
system.l2cache.demand_mshr_miss_latency::total       722000                       # number of demand (read+write) MSHR miss cycles
system.l2cache.overall_mshr_miss_latency::.cpu.inst       562000                       # number of overall MSHR miss cycles
system.l2cache.overall_mshr_miss_latency::.cpu.data       160000                       # number of overall MSHR miss cycles
system.l2cache.overall_mshr_miss_latency::total       722000                       # number of overall MSHR miss cycles
system.l2cache.demand_mshr_miss_rate::.cpu.inst            1                       # mshr miss rate for demand accesses
system.l2cache.demand_mshr_miss_rate::.cpu.data            1                       # mshr miss rate for demand accesses
system.l2cache.demand_mshr_miss_rate::total            1                       # mshr miss rate for demand accesses
system.l2cache.overall_mshr_miss_rate::.cpu.inst            1                       # mshr miss rate for overall accesses
system.l2cache.overall_mshr_miss_rate::.cpu.data            1                       # mshr miss rate for overall accesses
system.l2cache.overall_mshr_miss_rate::total            1                       # mshr miss rate for overall accesses
system.l2cache.demand_avg_mshr_miss_latency::.cpu.inst 62444.444444                       # average overall mshr miss latency
system.l2cache.demand_avg_mshr_miss_latency::.cpu.data        80000                       # average overall mshr miss latency
system.l2cache.demand_avg_mshr_miss_latency::total 65636.363636                       # average overall mshr miss latency
system.l2cache.overall_avg_mshr_miss_latency::.cpu.inst 62444.444444                       # average overall mshr miss latency
system.l2cache.overall_avg_mshr_miss_latency::.cpu.data        80000                       # average overall mshr miss latency
system.l2cache.overall_avg_mshr_miss_latency::total 65636.363636                       # average overall mshr miss latency
system.l2cache.replacements                         0                       # number of replacements
system.l2cache.ReadSharedReq_misses::.cpu.inst            9                       # number of ReadSharedReq misses
system.l2cache.ReadSharedReq_misses::.cpu.data            2                       # number of ReadSharedReq misses
system.l2cache.ReadSharedReq_misses::total           11                       # number of ReadSharedReq misses
system.l2cache.ReadSharedReq_miss_latency::.cpu.inst       571000                       # number of ReadSharedReq miss cycles
system.l2cache.ReadSharedReq_miss_latency::.cpu.data       162000                       # number of ReadSharedReq miss cycles
system.l2cache.ReadSharedReq_miss_latency::total       733000                       # number of ReadSharedReq miss cycles
system.l2cache.ReadSharedReq_accesses::.cpu.inst            9                       # number of ReadSharedReq accesses(hits+misses)
system.l2cache.ReadSharedReq_accesses::.cpu.data            2                       # number of ReadSharedReq accesses(hits+misses)
system.l2cache.ReadSharedReq_accesses::total           11                       # number of ReadSharedReq accesses(hits+misses)
system.l2cache.ReadSharedReq_miss_rate::.cpu.inst            1                       # miss rate for ReadSharedReq accesses
system.l2cache.ReadSharedReq_miss_rate::.cpu.data            1                       # miss rate for ReadSharedReq accesses
system.l2cache.ReadSharedReq_miss_rate::total            1                       # miss rate for ReadSharedReq accesses
system.l2cache.ReadSharedReq_avg_miss_latency::.cpu.inst 63444.444444                       # average ReadSharedReq miss latency
system.l2cache.ReadSharedReq_avg_miss_latency::.cpu.data        81000                       # average ReadSharedReq miss latency
system.l2cache.ReadSharedReq_avg_miss_latency::total 66636.363636                       # average ReadSharedReq miss latency
system.l2cache.ReadSharedReq_mshr_misses::.cpu.inst            9                       # number of ReadSharedReq MSHR misses
system.l2cache.ReadSharedReq_mshr_misses::.cpu.data            2                       # number of ReadSharedReq MSHR misses
system.l2cache.ReadSharedReq_mshr_misses::total           11                       # number of ReadSharedReq MSHR misses
system.l2cache.ReadSharedReq_mshr_miss_latency::.cpu.inst       562000                       # number of ReadSharedReq MSHR miss cycles
system.l2cache.ReadSharedReq_mshr_miss_latency::.cpu.data       160000                       # number of ReadSharedReq MSHR miss cycles
system.l2cache.ReadSharedReq_mshr_miss_latency::total       722000                       # number of ReadSharedReq MSHR miss cycles
system.l2cache.ReadSharedReq_mshr_miss_rate::.cpu.inst            1                       # mshr miss rate for ReadSharedReq accesses
system.l2cache.ReadSharedReq_mshr_miss_rate::.cpu.data            1                       # mshr miss rate for ReadSharedReq accesses
[...]
system.mem_ctrl.requestorReadAvgLat::.cpu.inst     20897.78                       # Per-requestor read average memory access latency
system.mem_ctrl.requestorReadAvgLat::.cpu.data     38732.00                       # Per-requestor read average memory access latency
system.mem_ctrl.dram.bytes_read::.cpu.inst          576                       # Number of bytes read from this memory
system.mem_ctrl.dram.bytes_read::.cpu.data          128                       # Number of bytes read from this memory
system.mem_ctrl.dram.bytes_read::total            704                       # Number of bytes read from this memory
system.mem_ctrl.dram.bytes_inst_read::.cpu.inst          576                       # Number of instructions bytes read from this memory
system.mem_ctrl.dram.bytes_inst_read::total          576                       # Number of instructions bytes read from this memory
system.mem_ctrl.dram.num_reads::.cpu.inst            9                       # Number of read requests responded to by this memory
system.mem_ctrl.dram.num_reads::.cpu.data            2                       # Number of read requests responded to by this memory
system.mem_ctrl.dram.num_reads::total              11                       # Number of read requests responded to by this memory
system.mem_ctrl.dram.bw_read::.cpu.inst       7746934                       # Total read bandwidth from this memory (bytes/s)
system.mem_ctrl.dram.bw_read::.cpu.data       1721541                       # Total read bandwidth from this memory (bytes/s)
system.mem_ctrl.dram.bw_read::total           9468474                       # Total read bandwidth from this memory (bytes/s)
system.mem_ctrl.dram.bw_inst_read::.cpu.inst      7746934                       # Instruction read bandwidth from this memory (bytes/s)
system.mem_ctrl.dram.bw_inst_read::total      7746934                       # Instruction read bandwidth from this memory (bytes/s)
system.mem_ctrl.dram.bw_total::.cpu.inst      7746934                       # Total bandwidth to/from this memory (bytes/s)
system.mem_ctrl.dram.bw_total::.cpu.data      1721541                       # Total bandwidth to/from this memory (bytes/s)
system.mem_ctrl.dram.bw_total::total          9468474                       # Total bandwidth to/from this memory (bytes/s)
system.mem_ctrl.dram.readBursts                    11                       # Number of DRAM read bursts
system.mem_ctrl.dram.writeBursts                    0                       # Number of DRAM write bursts
system.mem_ctrl.dram.perBankRdBursts::0             1                       # Per bank write bursts
system.mem_ctrl.dram.perBankRdBursts::1             0                       # Per bank write bursts
system.mem_ctrl.dram.perBankRdBursts::2             0                       # Per bank write bursts
system.mem_ctrl.dram.perBankRdBursts::3             3                       # Per bank write bursts
system.mem_ctrl.dram.perBankRdBursts::4             0                       # Per bank write bursts
system.mem_ctrl.dram.perBankRdBursts::5             0                       # Per bank write bursts
system.mem_ctrl.dram.perBankRdBursts::6             0                       # Per bank write bursts
system.mem_ctrl.dram.perBankRdBursts::7             6                       # Per bank write bursts
system.mem_ctrl.dram.perBankRdBursts::8             0                       # Per bank write bursts
system.mem_ctrl.dram.perBankRdBursts::9             0                       # Per bank write bursts
system.mem_ctrl.dram.perBankRdBursts::10            0                       # Per bank write bursts
system.mem_ctrl.dram.perBankRdBursts::11            0                       # Per bank write bursts
system.mem_ctrl.dram.perBankRdBursts::12            0                       # Per bank write bursts
system.mem_ctrl.dram.perBankRdBursts::13            0                       # Per bank write bursts
system.mem_ctrl.dram.perBankRdBursts::14            0                       # Per bank write bursts
system.mem_ctrl.dram.perBankRdBursts::15            0                       # Per bank write bursts
system.mem_ctrl.dram.perBankRdBursts::16            0                       # Per bank write bursts
system.mem_ctrl.dram.perBankRdBursts::17            0                       # Per bank write bursts
system.mem_ctrl.dram.perBankRdBursts::18            0                       # Per bank write bursts
system.mem_ctrl.dram.perBankRdBursts::19            0                       # Per bank write bursts
system.mem_ctrl.dram.perBankRdBursts::20            0                       # Per bank write bursts
system.mem_ctrl.dram.perBankRdBursts::21            0                       # Per bank write bursts
system.mem_ctrl.dram.perBankRdBursts::22            0                       # Per bank write bursts
system.mem_ctrl.dram.perBankRdBursts::23            0                       # Per bank write bursts
system.mem_ctrl.dram.perBankRdBursts::24            0                       # Per bank write bursts
system.mem_ctrl.dram.perBankRdBursts::25            0                       # Per bank write bursts
system.mem_ctrl.dram.perBankRdBursts::26            0                       # Per bank write bursts
system.mem_ctrl.dram.perBankRdBursts::27            0                       # Per bank write bursts
system.mem_ctrl.dram.perBankRdBursts::28            0                       # Per bank write bursts
system.mem_ctrl.dram.perBankRdBursts::29            0                       # Per bank write bursts
system.mem_ctrl.dram.perBankRdBursts::30            0                       # Per bank write bursts
system.mem_ctrl.dram.perBankRdBursts::31            1                       # Per bank write bursts
system.mem_ctrl.dram.perBankWrBursts::0             0                       # Per bank write bursts
system.mem_ctrl.dram.perBankWrBursts::1             0                       # Per bank write bursts
system.mem_ctrl.dram.perBankWrBursts::2             0                       # Per bank write bursts
system.mem_ctrl.dram.perBankWrBursts::3             0                       # Per bank write bursts
system.mem_ctrl.dram.perBankWrBursts::4             0                       # Per bank write bursts
system.mem_ctrl.dram.perBankWrBursts::5             0                       # Per bank write bursts
system.mem_ctrl.dram.perBankWrBursts::6             0                       # Per bank write bursts
system.mem_ctrl.dram.perBankWrBursts::7             0                       # Per bank write bursts
system.mem_ctrl.dram.perBankWrBursts::8             0                       # Per bank write bursts
system.mem_ctrl.dram.perBankWrBursts::9             0                       # Per bank write bursts
system.mem_ctrl.dram.perBankWrBursts::10            0                       # Per bank write bursts
system.mem_ctrl.dram.perBankWrBursts::11            0                       # Per bank write bursts
system.mem_ctrl.dram.perBankWrBursts::12            0                       # Per bank write bursts
system.mem_ctrl.dram.perBankWrBursts::13            0                       # Per bank write bursts
system.mem_ctrl.dram.perBankWrBursts::14            0                       # Per bank write bursts
system.mem_ctrl.dram.perBankWrBursts::15            0                       # Per bank write bursts
system.mem_ctrl.dram.perBankWrBursts::16            0                       # Per bank write bursts
system.mem_ctrl.dram.perBankWrBursts::17            0                       # Per bank write bursts
system.mem_ctrl.dram.perBankWrBursts::18            0                       # Per bank write bursts
system.mem_ctrl.dram.perBankWrBursts::19            0                       # Per bank write bursts
system.mem_ctrl.dram.perBankWrBursts::20            0                       # Per bank write bursts
system.mem_ctrl.dram.perBankWrBursts::21            0                       # Per bank write bursts
system.mem_ctrl.dram.perBankWrBursts::22            0                       # Per bank write bursts
system.mem_ctrl.dram.perBankWrBursts::23            0                       # Per bank write bursts
system.mem_ctrl.dram.perBankWrBursts::24            0                       # Per bank write bursts
system.mem_ctrl.dram.perBankWrBursts::25            0                       # Per bank write bursts
system.mem_ctrl.dram.perBankWrBursts::26            0                       # Per bank write bursts
system.mem_ctrl.dram.perBankWrBursts::27            0                       # Per bank write bursts
system.mem_ctrl.dram.perBankWrBursts::28            0                       # Per bank write bursts
system.mem_ctrl.dram.perBankWrBursts::29            0                       # Per bank write bursts
system.mem_ctrl.dram.perBankWrBursts::30            0                       # Per bank write bursts
system.mem_ctrl.dram.perBankWrBursts::31            0                       # Per bank write bursts
system.mem_ctrl.dram.totQLat                    73132                       # Total ticks spent queuing
system.mem_ctrl.dram.totBusLat                  36652                       # Total ticks spent in databus transfers
system.mem_ctrl.dram.totMemAccLat              265544                       # Total ticks spent from burst creation until serviced by the DRAM
system.mem_ctrl.dram.avgQLat                  6648.36                       # Average queueing delay per DRAM burst
system.mem_ctrl.dram.avgBusLat                3332.00                       # Average bus latency per DRAM burst
system.mem_ctrl.dram.avgMemAccLat            24140.36                       # Average memory access latency per DRAM burst
system.mem_ctrl.dram.readRowHits                    8                       # Number of row buffer hits during reads
system.mem_ctrl.dram.writeRowHits                   0                       # Number of row buffer hits during writes
system.mem_ctrl.dram.readRowHitRate             72.73                       # Row buffer hit rate for reads
system.mem_ctrl.dram.writeRowHitRate              nan                       # Row buffer hit rate for writes
system.mem_ctrl.dram.bytesPerActivate::samples           11                       # Bytes accessed per row activation
system.mem_ctrl.dram.bytesPerActivate::mean   145.454545                       # Bytes accessed per row activation
system.mem_ctrl.dram.bytesPerActivate::gmean   108.245871                       # Bytes accessed per row activation
system.mem_ctrl.dram.bytesPerActivate::stdev   151.697306                       # Bytes accessed per row activation
system.mem_ctrl.dram.bytesPerActivate::64-127            6     54.55%     54.55% # Bytes accessed per row activation
system.mem_ctrl.dram.bytesPerActivate::128-191            2     18.18%     72.73% # Bytes accessed per row activation
system.mem_ctrl.dram.bytesPerActivate::192-255            2     18.18%     90.91% # Bytes accessed per row activation
system.mem_ctrl.dram.bytesPerActivate::576-639            1      9.09%    100.00% # Bytes accessed per row activation
system.mem_ctrl.dram.bytesPerActivate::total           11                       # Bytes accessed per row activation
system.mem_ctrl.dram.bytesRead                    704                       # Total number of bytes read from DRAM
system.mem_ctrl.dram.bytesWritten                   0                       # Total number of bytes written to DRAM
system.mem_ctrl.dram.avgRdBW                 9.468474                       # Average DRAM read bandwidth in MiBytes/s
system.mem_ctrl.dram.avgWrBW                        0                       # Average DRAM write bandwidth in MiBytes/s
system.mem_ctrl.dram.peakBW                  19207.00                       # Theoretical peak bandwidth in MiByte/s
system.mem_ctrl.dram.busUtil                     0.05                       # Data bus utilization in percentage
system.mem_ctrl.dram.busUtilRead                 0.05                       # Data bus utilization in percentage for reads
system.mem_ctrl.dram.busUtilWrite                0.00                       # Data bus utilization in percentage for writes
system.mem_ctrl.dram.pageHitRate                72.73                       # Row buffer hit rate, read and write combined
system.mem_ctrl.dram.power_state.pwrStateResidencyTicks::UNDEFINED    106627000                       # Cumulative time (in ticks) in various power states
system.mem_ctrl.dram.rank0.actEnergy     37425.024000                       # Energy for activate commands per rank (pJ)
system.mem_ctrl.dram.rank0.preEnergy     49756.089600                       # Energy for precharge commands per rank (pJ)
system.mem_ctrl.dram.rank0.readEnergy    117776.870400                       # Energy for read commands per rank (pJ)
system.mem_ctrl.dram.rank0.writeEnergy              0                       # Energy for write commands per rank (pJ)
system.mem_ctrl.dram.rank0.refreshEnergy 12468398.644800                       # Energy for refresh commands per rank (pJ)
system.mem_ctrl.dram.rank0.actBackEnergy 8866276.070400                       # Energy for active background per rank (pJ)
system.mem_ctrl.dram.rank0.preBackEnergy 42225247.142400                       # Energy for precharge background per rank (pJ)
system.mem_ctrl.dram.rank0.actPowerDownEnergy            0                       # Energy for active power-down per rank (pJ)
system.mem_ctrl.dram.rank0.prePowerDownEnergy            0                       # Energy for precharge power-down per rank (pJ)
system.mem_ctrl.dram.rank0.selfRefreshEnergy            0                       # Energy for self refresh per rank (pJ)
system.mem_ctrl.dram.rank0.totalEnergy   63764879.841600                       # Total energy per rank (pJ)
system.mem_ctrl.dram.rank0.averagePower    857.608132                       # Core power per rank (mW)
system.mem_ctrl.dram.rank0.totalIdleTime            0                       # Total Idle time Per DRAM Rank
system.mem_ctrl.dram.rank0.pwrStateTime::IDLE     64533640                       # Time in different power states
system.mem_ctrl.dram.rank0.pwrStateTime::REF      3150000                       # Time in different power states
system.mem_ctrl.dram.rank0.pwrStateTime::SREF            0                       # Time in different power states
system.mem_ctrl.dram.rank0.pwrStateTime::PRE_PDN            0                       # Time in different power states
system.mem_ctrl.dram.rank0.pwrStateTime::ACT      7435840                       # Time in different power states
system.mem_ctrl.dram.rank0.pwrStateTime::ACT_PDN            0                       # Time in different power states
system.mem_ctrl.dram.rank1.actEnergy      6237.504000                       # Energy for activate commands per rank (pJ)
system.mem_ctrl.dram.rank1.preEnergy      8292.681600                       # Energy for precharge commands per rank (pJ)
system.mem_ctrl.dram.rank1.readEnergy     8412.633600                       # Energy for read commands per rank (pJ)
system.mem_ctrl.dram.rank1.writeEnergy              0                       # Energy for write commands per rank (pJ)
system.mem_ctrl.dram.rank1.refreshEnergy 12468398.644800                       # Energy for refresh commands per rank (pJ)
system.mem_ctrl.dram.rank1.actBackEnergy 8731102.161600                       # Energy for active background per rank (pJ)
system.mem_ctrl.dram.rank1.preBackEnergy 42216002.841600                       # Energy for precharge background per rank (pJ)
system.mem_ctrl.dram.rank1.actPowerDownEnergy            0                       # Energy for active power-down per rank (pJ)
system.mem_ctrl.dram.rank1.prePowerDownEnergy            0                       # Energy for precharge power-down per rank (pJ)
system.mem_ctrl.dram.rank1.selfRefreshEnergy            0                       # Energy for self refresh per rank (pJ)
system.mem_ctrl.dram.rank1.totalEnergy   63438446.467200                       # Total energy per rank (pJ)
system.mem_ctrl.dram.rank1.averagePower    853.217754                       # Core power per rank (mW)
system.mem_ctrl.dram.rank1.totalIdleTime            0                       # Total Idle time Per DRAM Rank
system.mem_ctrl.dram.rank1.pwrStateTime::IDLE     64533640                       # Time in different power states
system.mem_ctrl.dram.rank1.pwrStateTime::REF      3150000                       # Time in different power states
system.mem_ctrl.dram.rank1.pwrStateTime::SREF            0                       # Time in different power states
system.mem_ctrl.dram.rank1.pwrStateTime::PRE_PDN            0                       # Time in different power states
system.mem_ctrl.dram.rank1.pwrStateTime::ACT      7262360                       # Time in different power states
system.mem_ctrl.dram.rank1.pwrStateTime::ACT_PDN            0                       # Time in different power states
system.mem_ctrl.power_state.pwrStateResidencyTicks::UNDEFINED    106627000                       # Cumulative time (in ticks) in various power states
system.membus.trans_dist::ReadResp                 11                       # Transaction distribution
system.membus.trans_dist::ReadSharedReq            11                       # Transaction distribution
system.membus.pkt_count_system.l2cache.mem_side_port::system.mem_ctrl.port           22                       # Packet count per connected requestor and responder (bytes)
system.membus.pkt_count_system.l2cache.mem_side_port::total           22                       # Packet count per connected requestor and responder (bytes)
system.membus.pkt_count::total                     22                       # Packet count per connected requestor and responder (bytes)
system.membus.pkt_size_system.l2cache.mem_side_port::system.mem_ctrl.port          704                       # Cumulative packet size per connected requestor and responder (bytes)
system.membus.pkt_size_system.l2cache.mem_side_port::total          704                       # Cumulative packet size per connected requestor and responder (bytes)
system.membus.pkt_size::total                     704                       # Cumulative packet size per connected requestor and responder (bytes)
system.membus.snoops                                0                       # Total snoops (count)
system.membus.snoopTraffic                          0                       # Total snoop traffic (bytes)
system.membus.snoop_fanout::samples                11                       # Request fanout histogram
system.membus.snoop_fanout::mean                    0                       # Request fanout histogram
system.membus.snoop_fanout::stdev                   0                       # Request fanout histogram
system.membus.snoop_fanout::underflows              0      0.00%      0.00% # Request fanout histogram
system.membus.snoop_fanout::0                      11    100.00%    100.00% # Request fanout histogram
system.membus.snoop_fanout::1                       0      0.00%    100.00% # Request fanout histogram
system.membus.snoop_fanout::overflows               0      0.00%    100.00% # Request fanout histogram
system.membus.snoop_fanout::min_value               0                       # Request fanout histogram
system.membus.snoop_fanout::max_value               0                       # Request fanout histogram
system.membus.snoop_fanout::total                  11                       # Request fanout histogram
system.membus.power_state.pwrStateResidencyTicks::UNDEFINED    106627000                       # Cumulative time (in ticks) in various power states
system.membus.reqLayer0.occupancy               11000                       # Layer occupancy (ticks)
system.membus.reqLayer0.utilization               0.0                       # Layer utilization (%)
system.membus.respLayer0.occupancy              27456                       # Layer occupancy (ticks)
system.membus.respLayer0.utilization              0.0                       # Layer utilization (%)

---------- End Simulation Statistics   ----------
