
---------- Begin Simulation Statistics ----------
final_tick                                41360262500                       # Number of ticks from beginning of simulation (restored from checkpoints and never reset)
host_inst_rate                                  82573                       # Simulator instruction rate (inst/s)
host_mem_usage                                 675124                       # Number of bytes of host memory used
host_op_rate                                   155549                       # Simulator op (including micro ops) rate (op/s)
host_seconds                                  1211.05                       # Real time elapsed on the host
host_tick_rate                               34152346                       # Simulator tick rate (ticks/s)
sim_freq                                 1000000000000                       # Frequency of simulated ticks
sim_insts                                   100000001                       # Number of instructions simulated
sim_ops                                     188377356                       # Number of ops (including micro ops) simulated
sim_seconds                                  0.041360                       # Number of seconds simulated
sim_ticks                                 41360262500                       # Number of ticks simulated
system.cpu.cc_regfile_reads                 119960180                       # number of cc regfile reads
system.cpu.cc_regfile_writes                 58059513                       # number of cc regfile writes
system.cpu.committedInsts                   100000001                       # Number of Instructions Simulated
system.cpu.committedOps                     188377356                       # Number of Ops (including micro ops) Simulated
system.cpu.cpi                               0.827205                       # CPI: Cycles Per Instruction
system.cpu.cpi_total                         0.827205                       # CPI: Total CPI of All Threads
system.cpu.fp_regfile_reads                   5463639                       # number of floating regfile reads
system.cpu.fp_regfile_writes                  3073047                       # number of floating regfile writes
system.cpu.idleCycles                           87344                       # Total number of cycles that the CPU has spent unscheduled due to idling
system.cpu.iew.branchMispredicts               483922                       # Number of branch mispredicts detected at execute
system.cpu.iew.exec_branches                 22157281                       # Number of branches executed
system.cpu.iew.exec_nop                             0                       # number of nop insts executed
system.cpu.iew.exec_rate                     2.365900                       # Inst execution rate
system.cpu.iew.exec_refs                     39368828                       # number of memory reference insts executed
system.cpu.iew.exec_stores                   15907398                       # Number of stores executed
system.cpu.iew.exec_swp                             0                       # number of swp insts executed
system.cpu.iew.iewBlockCycles                 5028370                       # Number of cycles IEW is blocking
system.cpu.iew.iewDispLoadInsts              23739629                       # Number of dispatched load instructions
system.cpu.iew.iewDispNonSpecInsts                 61                       # Number of dispatched non-speculative instructions
system.cpu.iew.iewDispSquashedInsts              6729                       # Number of squashed instructions skipped by dispatch
system.cpu.iew.iewDispStoreInsts             16152388                       # Number of dispatched store instructions
system.cpu.iew.iewDispatchedInsts           199779664                       # Number of instructions dispatched to IQ
system.cpu.iew.iewExecLoadInsts              23461430                       # Number of load instructions executed
system.cpu.iew.iewExecSquashedInsts           1021280                       # Number of squashed instructions skipped in execute
system.cpu.iew.iewExecutedInsts             195708505                       # Number of executed instructions
system.cpu.iew.iewIQFullEvents                  49389                       # Number of times the IQ has become full, causing a stall
system.cpu.iew.iewIdleCycles                        0                       # Number of cycles IEW is idle
system.cpu.iew.iewLSQFullEvents               3451528                       # Number of times the LSQ has become full, causing a stall
system.cpu.iew.iewSquashCycles                 387194                       # Number of cycles IEW is squashing
system.cpu.iew.iewUnblockCycles               3535820                       # Number of cycles IEW is unblocking
system.cpu.iew.memOrderViolationEvents           1172                       # Number of memory order violations
system.cpu.iew.predictedNotTakenIncorrect       358430                       # Number of branches that were predicted not taken incorrectly
system.cpu.iew.predictedTakenIncorrect         125492                       # Number of branches that were predicted taken incorrectly
system.cpu.iew.wb_consumers                 218728239                       # num instructions consuming a value
system.cpu.iew.wb_count                     195280997                       # cumulative count of insts written-back
system.cpu.iew.wb_fanout                     0.621439                       # average fanout of values written-back
system.cpu.iew.wb_producers                 135926294                       # num instructions producing a value
system.cpu.iew.wb_rate                       2.360732                       # insts written-back per cycle
system.cpu.iew.wb_sent                      195468777                       # cumulative count of insts sent to commit
system.cpu.int_regfile_reads                298683269                       # number of integer regfile reads
system.cpu.int_regfile_writes               155163299                       # number of integer regfile writes
system.cpu.ipc                               1.208890                       # IPC: Instructions Per Cycle
system.cpu.ipc_total                         1.208890                       # IPC: Total IPC of All Threads
system.cpu.iq.FU_type_0::No_OpClass           1764137      0.90%      0.90% # Type of FU issued
system.cpu.iq.FU_type_0::IntAlu             151433849     76.98%     77.87% # Type of FU issued
system.cpu.iq.FU_type_0::IntMult               752141      0.38%     78.25% # Type of FU issued
system.cpu.iq.FU_type_0::IntDiv                812909      0.41%     78.67% # Type of FU issued
system.cpu.iq.FU_type_0::FloatAdd              476892      0.24%     78.91% # Type of FU issued
system.cpu.iq.FU_type_0::FloatCmp                   0      0.00%     78.91% # Type of FU issued
system.cpu.iq.FU_type_0::FloatCvt                  32      0.00%     78.91% # Type of FU issued
system.cpu.iq.FU_type_0::FloatMult                  0      0.00%     78.91% # Type of FU issued
system.cpu.iq.FU_type_0::FloatMultAcc               0      0.00%     78.91% # Type of FU issued
system.cpu.iq.FU_type_0::FloatDiv                   0      0.00%     78.91% # Type of FU issued
system.cpu.iq.FU_type_0::FloatMisc                  0      0.00%     78.91% # Type of FU issued
system.cpu.iq.FU_type_0::FloatSqrt                  0      0.00%     78.91% # Type of FU issued
system.cpu.iq.FU_type_0::SimdAdd                  455      0.00%     78.91% # Type of FU issued
system.cpu.iq.FU_type_0::SimdAddAcc                 0      0.00%     78.91% # Type of FU issued
system.cpu.iq.FU_type_0::SimdAlu               193726      0.10%     79.01% # Type of FU issued
system.cpu.iq.FU_type_0::SimdCmp                   20      0.00%     79.01% # Type of FU issued
system.cpu.iq.FU_type_0::SimdCvt               376260      0.19%     79.20% # Type of FU issued
system.cpu.iq.FU_type_0::SimdMisc             1246134      0.63%     79.83% # Type of FU issued
system.cpu.iq.FU_type_0::SimdMult                   0      0.00%     79.83% # Type of FU issued
system.cpu.iq.FU_type_0::SimdMultAcc                0      0.00%     79.83% # Type of FU issued
system.cpu.iq.FU_type_0::SimdShift                296      0.00%     79.83% # Type of FU issued
system.cpu.iq.FU_type_0::SimdShiftAcc               0      0.00%     79.83% # Type of FU issued
system.cpu.iq.FU_type_0::SimdDiv                    0      0.00%     79.83% # Type of FU issued
system.cpu.iq.FU_type_0::SimdSqrt                   0      0.00%     79.83% # Type of FU issued
system.cpu.iq.FU_type_0::SimdFloatAdd               0      0.00%     79.83% # Type of FU issued
system.cpu.iq.FU_type_0::SimdFloatAlu               0      0.00%     79.83% # Type of FU issued
system.cpu.iq.FU_type_0::SimdFloatCmp               0      0.00%     79.83% # Type of FU issued
system.cpu.iq.FU_type_0::SimdFloatCvt               4      0.00%     79.83% # Type of FU issued
system.cpu.iq.FU_type_0::SimdFloatDiv               0      0.00%     79.83% # Type of FU issued
system.cpu.iq.FU_type_0::SimdFloatMisc              0      0.00%     79.83% # Type of FU issued
system.cpu.iq.FU_type_0::SimdFloatMult              2      0.00%     79.83% # Type of FU issued
system.cpu.iq.FU_type_0::SimdFloatMultAcc            0      0.00%     79.83% # Type of FU issued
system.cpu.iq.FU_type_0::SimdFloatSqrt              0      0.00%     79.83% # Type of FU issued
system.cpu.iq.FU_type_0::SimdReduceAdd              0      0.00%     79.83% # Type of FU issued
system.cpu.iq.FU_type_0::SimdReduceAlu              0      0.00%     79.83% # Type of FU issued
system.cpu.iq.FU_type_0::SimdReduceCmp              0      0.00%     79.83% # Type of FU issued
system.cpu.iq.FU_type_0::SimdFloatReduceAdd            0      0.00%     79.83% # Type of FU issued
system.cpu.iq.FU_type_0::SimdFloatReduceCmp            0      0.00%     79.83% # Type of FU issued
system.cpu.iq.FU_type_0::SimdAes                    0      0.00%     79.83% # Type of FU issued
system.cpu.iq.FU_type_0::SimdAesMix                 0      0.00%     79.83% # Type of FU issued
system.cpu.iq.FU_type_0::SimdSha1Hash               0      0.00%     79.83% # Type of FU issued
system.cpu.iq.FU_type_0::SimdSha1Hash2              0      0.00%     79.83% # Type of FU issued
system.cpu.iq.FU_type_0::SimdSha256Hash             0      0.00%     79.83% # Type of FU issued
system.cpu.iq.FU_type_0::SimdSha256Hash2            0      0.00%     79.83% # Type of FU issued
system.cpu.iq.FU_type_0::SimdShaSigma2              0      0.00%     79.83% # Type of FU issued
system.cpu.iq.FU_type_0::SimdShaSigma3              0      0.00%     79.83% # Type of FU issued
system.cpu.iq.FU_type_0::SimdPredAlu                0      0.00%     79.83% # Type of FU issued
system.cpu.iq.FU_type_0::MemRead             22670774     11.52%     91.36% # Type of FU issued
system.cpu.iq.FU_type_0::MemWrite            14416061      7.33%     98.69% # Type of FU issued
system.cpu.iq.FU_type_0::FloatMemRead          985530      0.50%     99.19% # Type of FU issued
system.cpu.iq.FU_type_0::FloatMemWrite        1600568      0.81%    100.00% # Type of FU issued
system.cpu.iq.FU_type_0::IprAccess                  0      0.00%    100.00% # Type of FU issued
system.cpu.iq.FU_type_0::InstPrefetch               0      0.00%    100.00% # Type of FU issued
system.cpu.iq.FU_type_0::total              196729790                       # Type of FU issued
system.cpu.iq.fp_alu_accesses                 5326010                       # Number of floating point alu accesses
system.cpu.iq.fp_inst_queue_reads            10492876                       # Number of floating instruction queue reads
system.cpu.iq.fp_inst_queue_wakeup_accesses      4982387                       # Number of floating instruction queue wakeup accesses
system.cpu.iq.fp_inst_queue_writes            6358126                       # Number of floating instruction queue writes
system.cpu.iq.fu_busy_cnt                     2926528                       # FU busy when requested
system.cpu.iq.fu_busy_rate                   0.014876                       # FU busy rate (busy events/executed inst)
system.cpu.iq.fu_full::No_OpClass                   0      0.00%      0.00% # attempts to use FU when none available
system.cpu.iq.fu_full::IntAlu                 2444480     83.53%     83.53% # attempts to use FU when none available
system.cpu.iq.fu_full::IntMult                      0      0.00%     83.53% # attempts to use FU when none available
system.cpu.iq.fu_full::IntDiv                       0      0.00%     83.53% # attempts to use FU when none available
system.cpu.iq.fu_full::FloatAdd                     0      0.00%     83.53% # attempts to use FU when none available
system.cpu.iq.fu_full::FloatCmp                     0      0.00%     83.53% # attempts to use FU when none available
system.cpu.iq.fu_full::FloatCvt                     0      0.00%     83.53% # attempts to use FU when none available
system.cpu.iq.fu_full::FloatMult                    0      0.00%     83.53% # attempts to use FU when none available
system.cpu.iq.fu_full::FloatMultAcc                 0      0.00%     83.53% # attempts to use FU when none available
system.cpu.iq.fu_full::FloatDiv                     0      0.00%     83.53% # attempts to use FU when none available
system.cpu.iq.fu_full::FloatMisc                    0      0.00%     83.53% # attempts to use FU when none available
system.cpu.iq.fu_full::FloatSqrt                    0      0.00%     83.53% # attempts to use FU when none available
system.cpu.iq.fu_full::SimdAdd                      0      0.00%     83.53% # attempts to use FU when none available
system.cpu.iq.fu_full::SimdAddAcc                   0      0.00%     83.53% # attempts to use FU when none available
system.cpu.iq.fu_full::SimdAlu                     20      0.00%     83.53% # attempts to use FU when none available
system.cpu.iq.fu_full::SimdCmp                      2      0.00%     83.53% # attempts to use FU when none available
system.cpu.iq.fu_full::SimdCvt                  11391      0.39%     83.92% # attempts to use FU when none available
system.cpu.iq.fu_full::SimdMisc                  1818      0.06%     83.98% # attempts to use FU when none available
system.cpu.iq.fu_full::SimdMult                     0      0.00%     83.98% # attempts to use FU when none available
system.cpu.iq.fu_full::SimdMultAcc                  0      0.00%     83.98% # attempts to use FU when none available
system.cpu.iq.fu_full::SimdShift                    1      0.00%     83.98% # attempts to use FU when none available
system.cpu.iq.fu_full::SimdShiftAcc                 0      0.00%     83.98% # attempts to use FU when none available
system.cpu.iq.fu_full::SimdDiv                      0      0.00%     83.98% # attempts to use FU when none available
system.cpu.iq.fu_full::SimdSqrt                     0      0.00%     83.98% # attempts to use FU when none available
system.cpu.iq.fu_full::SimdFloatAdd                 0      0.00%     83.98% # attempts to use FU when none available
system.cpu.iq.fu_full::SimdFloatAlu                 0      0.00%     83.98% # attempts to use FU when none available
system.cpu.iq.fu_full::SimdFloatCmp                 0      0.00%     83.98% # attempts to use FU when none available
system.cpu.iq.fu_full::SimdFloatCvt                 0      0.00%     83.98% # attempts to use FU when none available
system.cpu.iq.fu_full::SimdFloatDiv                 0      0.00%     83.98% # attempts to use FU when none available
system.cpu.iq.fu_full::SimdFloatMisc                0      0.00%     83.98% # attempts to use FU when none available
system.cpu.iq.fu_full::SimdFloatMult                0      0.00%     83.98% # attempts to use FU when none available
system.cpu.iq.fu_full::SimdFloatMultAcc             0      0.00%     83.98% # attempts to use FU when none available
system.cpu.iq.fu_full::SimdFloatSqrt                0      0.00%     83.98% # attempts to use FU when none available
system.cpu.iq.fu_full::SimdReduceAdd                0      0.00%     83.98% # attempts to use FU when none available
system.cpu.iq.fu_full::SimdReduceAlu                0      0.00%     83.98% # attempts to use FU when none available
system.cpu.iq.fu_full::SimdReduceCmp                0      0.00%     83.98% # attempts to use FU when none available
system.cpu.iq.fu_full::SimdFloatReduceAdd            0      0.00%     83.98% # attempts to use FU when none available
system.cpu.iq.fu_full::SimdFloatReduceCmp            0      0.00%     83.98% # attempts to use FU when none available
system.cpu.iq.fu_full::SimdAes                      0      0.00%     83.98% # attempts to use FU when none available
system.cpu.iq.fu_full::SimdAesMix                   0      0.00%     83.98% # attempts to use FU when none available
system.cpu.iq.fu_full::SimdSha1Hash                 0      0.00%     83.98% # attempts to use FU when none available
system.cpu.iq.fu_full::SimdSha1Hash2                0      0.00%     83.98% # attempts to use FU when none available
system.cpu.iq.fu_full::SimdSha256Hash               0      0.00%     83.98% # attempts to use FU when none available
system.cpu.iq.fu_full::SimdSha256Hash2              0      0.00%     83.98% # attempts to use FU when none available
system.cpu.iq.fu_full::SimdShaSigma2                0      0.00%     83.98% # attempts to use FU when none available
system.cpu.iq.fu_full::SimdShaSigma3                0      0.00%     83.98% # attempts to use FU when none available
system.cpu.iq.fu_full::SimdPredAlu                  0      0.00%     83.98% # attempts to use FU when none available
system.cpu.iq.fu_full::MemRead                 224804      7.68%     91.66% # attempts to use FU when none available
system.cpu.iq.fu_full::MemWrite                102913      3.52%     95.18% # attempts to use FU when none available
system.cpu.iq.fu_full::FloatMemRead             19689      0.67%     95.85% # attempts to use FU when none available
system.cpu.iq.fu_full::FloatMemWrite           121410      4.15%    100.00% # attempts to use FU when none available
system.cpu.iq.fu_full::IprAccess                    0      0.00%    100.00% # attempts to use FU when none available
system.cpu.iq.fu_full::InstPrefetch                 0      0.00%    100.00% # attempts to use FU when none available
system.cpu.iq.int_alu_accesses              192566171                       # Number of integer alu accesses
system.cpu.iq.int_inst_queue_reads          468594547                       # Number of integer instruction queue reads
system.cpu.iq.int_inst_queue_wakeup_accesses    190298610                       # Number of integer instruction queue wakeup accesses
system.cpu.iq.int_inst_queue_writes         204824979                       # Number of integer instruction queue writes
system.cpu.iq.iqInstsAdded                  199779523                       # Number of instructions added to the IQ (excludes non-spec)
system.cpu.iq.iqInstsIssued                 196729790                       # Number of instructions issued
system.cpu.iq.iqNonSpecInstsAdded                 141                       # Number of non-speculative instructions added to the IQ
system.cpu.iq.iqSquashedInstsExamined        11402273                       # Number of squashed instructions iterated over during squash; mainly for profiling
system.cpu.iq.iqSquashedInstsIssued             68138                       # Number of squashed instructions issued
system.cpu.iq.iqSquashedNonSpecRemoved             75                       # Number of squashed non-spec instructions that were removed
system.cpu.iq.iqSquashedOperandsExamined     14584908                       # Number of squashed operands that are examined and possibly removed from graph
system.cpu.iq.issued_per_cycle::samples      82633182                       # Number of insts issued each cycle
system.cpu.iq.issued_per_cycle::mean         2.380760                       # Number of insts issued each cycle
system.cpu.iq.issued_per_cycle::stdev        2.464240                       # Number of insts issued each cycle
system.cpu.iq.issued_per_cycle::underflows            0      0.00%      0.00% # Number of insts issued each cycle
system.cpu.iq.issued_per_cycle::0            31998642     38.72%     38.72% # Number of insts issued each cycle
system.cpu.iq.issued_per_cycle::1             6781249      8.21%     46.93% # Number of insts issued each cycle
system.cpu.iq.issued_per_cycle::2             8182651      9.90%     56.83% # Number of insts issued each cycle
system.cpu.iq.issued_per_cycle::3             9046293     10.95%     67.78% # Number of insts issued each cycle
system.cpu.iq.issued_per_cycle::4             7850329      9.50%     77.28% # Number of insts issued each cycle
system.cpu.iq.issued_per_cycle::5             5969293      7.22%     84.50% # Number of insts issued each cycle
system.cpu.iq.issued_per_cycle::6             6752337      8.17%     92.68% # Number of insts issued each cycle
system.cpu.iq.issued_per_cycle::7             3736547      4.52%     97.20% # Number of insts issued each cycle
system.cpu.iq.issued_per_cycle::8             2315841      2.80%    100.00% # Number of insts issued each cycle
system.cpu.iq.issued_per_cycle::overflows            0      0.00%    100.00% # Number of insts issued each cycle
system.cpu.iq.issued_per_cycle::min_value            0                       # Number of insts issued each cycle
system.cpu.iq.issued_per_cycle::max_value            8                       # Number of insts issued each cycle
system.cpu.iq.issued_per_cycle::total        82633182                       # Number of insts issued each cycle
system.cpu.iq.rate                           2.378246                       # Inst issue rate
system.cpu.iq.vec_alu_accesses                      0                       # Number of vector alu accesses
system.cpu.iq.vec_inst_queue_reads                  0                       # Number of vector instruction queue reads
system.cpu.iq.vec_inst_queue_wakeup_accesses            0                       # Number of vector instruction queue wakeup accesses
system.cpu.iq.vec_inst_queue_writes                 0                       # Number of vector instruction queue writes
system.cpu.memDep0.conflictingLoads            660876                       # Number of conflicting loads.
system.cpu.memDep0.conflictingStores           168823                       # Number of conflicting stores.
system.cpu.memDep0.insertedLoads             23739629                       # Number of loads inserted to the mem dependence unit.
system.cpu.memDep0.insertedStores            16152388                       # Number of stores inserted to the mem dependence unit.
system.cpu.misc_regfile_reads                83465138                       # number of misc regfile reads
system.cpu.misc_regfile_writes                     18                       # number of misc regfile writes
system.cpu.numCycles                         82720526                       # number of cpu cycles simulated
system.cpu.numWorkItemsCompleted                    0                       # number of work items this cpu completed
system.cpu.numWorkItemsStarted                      0                       # number of work items this cpu started
system.cpu.timesIdled                            1307                       # Number of times that the entire CPU went into an idle state and unscheduled itself
system.cpu.workload.numSyscalls                   128                       # Number of system calls
system.membus.snoop_filter.hit_multi_requests            0                       # Number of requests hitting in the snoop filter with multiple (>1) holders of the requested data.
system.membus.snoop_filter.hit_multi_snoops            0                       # Number of snoops hitting in the snoop filter with multiple (>1) holders of the requested data.
system.membus.snoop_filter.hit_single_requests       201769                       # Number of requests hitting in the snoop filter with a single holder of the requested data.
system.membus.snoop_filter.hit_single_snoops            0                       # Number of snoops hitting in the snoop filter with a single holder of the requested data.
system.membus.snoop_filter.tot_requests        412235                       # Total number of requests made to the snoop filter.
system.membus.snoop_filter.tot_snoops               0                       # Total number of snoops made to the snoop filter.
system.tol2bus.snoop_filter.hit_multi_requests          111                       # Number of requests hitting in the snoop filter with multiple (>1) holders of the requested data.
system.tol2bus.snoop_filter.hit_multi_snoops           21                       # Number of snoops hitting in the snoop filter with multiple (>1) holders of the requested data.
system.tol2bus.snoop_filter.hit_single_requests       403542                       # Number of requests hitting in the snoop filter with a single holder of the requested data.
system.tol2bus.snoop_filter.hit_single_snoops          859                       # Number of snoops hitting in the snoop filter with a single holder of the requested data.
system.tol2bus.snoop_filter.tot_requests       808104                       # Total number of requests made to the snoop filter.
system.tol2bus.snoop_filter.tot_snoops            880                       # Total number of snoops made to the snoop filter.
system.clk_domain.clock                           250                       # Clock period in ticks
system.cpu.branchPred.lookups                23766302                       # Number of BP lookups
system.cpu.branchPred.condPredicted          19517173                       # Number of conditional branches predicted
system.cpu.branchPred.condIncorrect            479269                       # Number of conditional branches incorrect
system.cpu.branchPred.BTBLookups              9996789                       # Number of BTB lookups
system.cpu.branchPred.BTBHits                 9269179                       # Number of BTB hits
system.cpu.branchPred.BTBHitPct             92.721563                       # BTB Hit Percentage
system.cpu.branchPred.RASUsed                 1115039                       # Number of times the RAS was used to get a target.
system.cpu.branchPred.RASIncorrect                 10                       # Number of incorrect RAS predictions.
system.cpu.branchPred.indirectLookups          533607                       # Number of indirect predictor lookups.
system.cpu.branchPred.indirectHits             510659                       # Number of indirect target hits.
system.cpu.branchPred.indirectMisses            22948                       # Number of indirect misses.
system.cpu.branchPred.indirectMispredicted          459                       # Number of mispredicted indirect branches.
system.cpu.commit.commitSquashedInsts        11362656                       # The number of squashed insts skipped by commit
system.cpu.commit.commitNonSpecStalls              66                       # The number of times commit has been forced to stall to communicate backwards
system.cpu.commit.branchMispredicts            382807                       # The number of times a branch was mispredicted
system.cpu.commit.numCommittedDist::samples     80992395                       # Number of insts commited each cycle
system.cpu.commit.numCommittedDist::mean     2.325865                       # Number of insts commited each cycle
system.cpu.commit.numCommittedDist::stdev     2.816738                       # Number of insts commited each cycle
system.cpu.commit.numCommittedDist::underflows            0      0.00%      0.00% # Number of insts commited each cycle
system.cpu.commit.numCommittedDist::0        34959502     43.16%     43.16% # Number of insts commited each cycle
system.cpu.commit.numCommittedDist::1        10195753     12.59%     55.75% # Number of insts commited each cycle
system.cpu.commit.numCommittedDist::2         5248912      6.48%     62.23% # Number of insts commited each cycle
system.cpu.commit.numCommittedDist::3         9357695     11.55%     73.79% # Number of insts commited each cycle
system.cpu.commit.numCommittedDist::4         2560895      3.16%     76.95% # Number of insts commited each cycle
system.cpu.commit.numCommittedDist::5         3782492      4.67%     81.62% # Number of insts commited each cycle
system.cpu.commit.numCommittedDist::6         3323917      4.10%     85.72% # Number of insts commited each cycle
system.cpu.commit.numCommittedDist::7         1994680      2.46%     88.19% # Number of insts commited each cycle
system.cpu.commit.numCommittedDist::8         9568549     11.81%    100.00% # Number of insts commited each cycle
system.cpu.commit.numCommittedDist::overflows            0      0.00%    100.00% # Number of insts commited each cycle
system.cpu.commit.numCommittedDist::min_value            0                       # Number of insts commited each cycle
system.cpu.commit.numCommittedDist::max_value            8                       # Number of insts commited each cycle
system.cpu.commit.numCommittedDist::total     80992395                       # Number of insts commited each cycle
system.cpu.commit.instsCommitted            100000001                       # Number of instructions committed
system.cpu.commit.opsCommitted              188377356                       # Number of ops (including micro ops) committed
system.cpu.commit.memRefs                    38036846                       # Number of memory references committed
system.cpu.commit.loads                      22459262                       # Number of loads committed
system.cpu.commit.amos                              0                       # Number of atomic instructions committed
system.cpu.commit.membars                          32                       # Number of memory barriers committed
system.cpu.commit.branches                   21544942                       # Number of branches committed
system.cpu.commit.vector                            0                       # Number of committed Vector instructions.
system.cpu.commit.floating                    4463062                       # Number of committed floating point instructions.
system.cpu.commit.integer                   184964991                       # Number of committed integer instructions.
system.cpu.commit.functionCalls                984766                       # Number of function calls committed.
system.cpu.commit.committedInstType_0::No_OpClass      1710424      0.91%      0.91% # Class of committed instruction
system.cpu.commit.committedInstType_0::IntAlu    145124422     77.04%     77.95% # Class of committed instruction
system.cpu.commit.committedInstType_0::IntMult       740405      0.39%     78.34% # Class of committed instruction
system.cpu.commit.committedInstType_0::IntDiv       795782      0.42%     78.76% # Class of committed instruction
system.cpu.commit.committedInstType_0::FloatAdd       476249      0.25%     79.02% # Class of committed instruction
system.cpu.commit.committedInstType_0::FloatCmp            0      0.00%     79.02% # Class of committed instruction
system.cpu.commit.committedInstType_0::FloatCvt           32      0.00%     79.02% # Class of committed instruction
system.cpu.commit.committedInstType_0::FloatMult            0      0.00%     79.02% # Class of committed instruction
system.cpu.commit.committedInstType_0::FloatMultAcc            0      0.00%     79.02% # Class of committed instruction
system.cpu.commit.committedInstType_0::FloatDiv            0      0.00%     79.02% # Class of committed instruction
system.cpu.commit.committedInstType_0::FloatMisc            0      0.00%     79.02% # Class of committed instruction
system.cpu.commit.committedInstType_0::FloatSqrt            0      0.00%     79.02% # Class of committed instruction
system.cpu.commit.committedInstType_0::SimdAdd          398      0.00%     79.02% # Class of committed instruction
system.cpu.commit.committedInstType_0::SimdAddAcc            0      0.00%     79.02% # Class of committed instruction
system.cpu.commit.committedInstType_0::SimdAlu        96914      0.05%     79.07% # Class of committed instruction
system.cpu.commit.committedInstType_0::SimdCmp           20      0.00%     79.07% # Class of committed instruction
system.cpu.commit.committedInstType_0::SimdCvt       255066      0.14%     79.20% # Class of committed instruction
system.cpu.commit.committedInstType_0::SimdMisc      1140687      0.61%     79.81% # Class of committed instruction
system.cpu.commit.committedInstType_0::SimdMult            0      0.00%     79.81% # Class of committed instruction
system.cpu.commit.committedInstType_0::SimdMultAcc            0      0.00%     79.81% # Class of committed instruction
system.cpu.commit.committedInstType_0::SimdShift          105      0.00%     79.81% # Class of committed instruction
system.cpu.commit.committedInstType_0::SimdShiftAcc            0      0.00%     79.81% # Class of committed instruction
system.cpu.commit.committedInstType_0::SimdDiv            0      0.00%     79.81% # Class of committed instruction
system.cpu.commit.committedInstType_0::SimdSqrt            0      0.00%     79.81% # Class of committed instruction
system.cpu.commit.committedInstType_0::SimdFloatAdd            0      0.00%     79.81% # Class of committed instruction
system.cpu.commit.committedInstType_0::SimdFloatAlu            0      0.00%     79.81% # Class of committed instruction
system.cpu.commit.committedInstType_0::SimdFloatCmp            0      0.00%     79.81% # Class of committed instruction
system.cpu.commit.committedInstType_0::SimdFloatCvt            4      0.00%     79.81% # Class of committed instruction
system.cpu.commit.committedInstType_0::SimdFloatDiv            0      0.00%     79.81% # Class of committed instruction
system.cpu.commit.committedInstType_0::SimdFloatMisc            0      0.00%     79.81% # Class of committed instruction
system.cpu.commit.committedInstType_0::SimdFloatMult            2      0.00%     79.81% # Class of committed instruction
system.cpu.commit.committedInstType_0::SimdFloatMultAcc            0      0.00%     79.81% # Class of committed instruction
system.cpu.commit.committedInstType_0::SimdFloatSqrt            0      0.00%     79.81% # Class of committed instruction
system.cpu.commit.committedInstType_0::SimdReduceAdd            0      0.00%     79.81% # Class of committed instruction
system.cpu.commit.committedInstType_0::SimdReduceAlu            0      0.00%     79.81% # Class of committed instruction
system.cpu.commit.committedInstType_0::SimdReduceCmp            0      0.00%     79.81% # Class of committed instruction
system.cpu.commit.committedInstType_0::SimdFloatReduceAdd            0      0.00%     79.81% # Class of committed instruction
system.cpu.commit.committedInstType_0::SimdFloatReduceCmp            0      0.00%     79.81% # Class of committed instruction
system.cpu.commit.committedInstType_0::SimdAes            0      0.00%     79.81% # Class of committed instruction
system.cpu.commit.committedInstType_0::SimdAesMix            0      0.00%     79.81% # Class of committed instruction
system.cpu.commit.committedInstType_0::SimdSha1Hash            0      0.00%     79.81% # Class of committed instruction
system.cpu.commit.committedInstType_0::SimdSha1Hash2            0      0.00%     79.81% # Class of committed instruction
system.cpu.commit.committedInstType_0::SimdSha256Hash            0      0.00%     79.81% # Class of committed instruction
system.cpu.commit.committedInstType_0::SimdSha256Hash2            0      0.00%     79.81% # Class of committed instruction
system.cpu.commit.committedInstType_0::SimdShaSigma2            0      0.00%     79.81% # Class of committed instruction
system.cpu.commit.committedInstType_0::SimdShaSigma3            0      0.00%     79.81% # Class of committed instruction
system.cpu.commit.committedInstType_0::SimdPredAlu            0      0.00%     79.81% # Class of committed instruction
system.cpu.commit.committedInstType_0::MemRead     21743474     11.54%     91.35% # Class of committed instruction
system.cpu.commit.committedInstType_0::MemWrite     14086201      7.48%     98.83% # Class of committed instruction
system.cpu.commit.committedInstType_0::FloatMemRead       715788      0.38%     99.21% # Class of committed instruction
system.cpu.commit.committedInstType_0::FloatMemWrite      1491383      0.79%    100.00% # Class of committed instruction
system.cpu.commit.committedInstType_0::IprAccess            0      0.00%    100.00% # Class of committed instruction
system.cpu.commit.committedInstType_0::InstPrefetch            0      0.00%    100.00% # Class of committed instruction
system.cpu.commit.committedInstType_0::total    188377356                       # Class of committed instruction
system.cpu.commit.commitEligibleSamples       9568549                       # number cycles where commit BW limit reached
system.cpu.dcache.demand_hits::.cpu.data     34587344                       # number of demand (read+write) hits
system.cpu.dcache.demand_hits::total         34587344                       # number of demand (read+write) hits
system.cpu.dcache.overall_hits::.cpu.data     34587344                       # number of overall hits
system.cpu.dcache.overall_hits::total        34587344                       # number of overall hits
system.cpu.dcache.demand_misses::.cpu.data       351514                       # number of demand (read+write) misses
system.cpu.dcache.demand_misses::total         351514                       # number of demand (read+write) misses
system.cpu.dcache.overall_misses::.cpu.data       351514                       # number of overall misses
system.cpu.dcache.overall_misses::total        351514                       # number of overall misses
system.cpu.dcache.demand_miss_latency::.cpu.data  22503721492                       # number of demand (read+write) miss cycles
system.cpu.dcache.demand_miss_latency::total  22503721492                       # number of demand (read+write) miss cycles
system.cpu.dcache.overall_miss_latency::.cpu.data  22503721492                       # number of overall miss cycles
system.cpu.dcache.overall_miss_latency::total  22503721492                       # number of overall miss cycles
system.cpu.dcache.demand_accesses::.cpu.data     34938858                       # number of demand (read+write) accesses
system.cpu.dcache.demand_accesses::total     34938858                       # number of demand (read+write) accesses
system.cpu.dcache.overall_accesses::.cpu.data     34938858                       # number of overall (read+write) accesses
system.cpu.dcache.overall_accesses::total     34938858                       # number of overall (read+write) accesses
system.cpu.dcache.demand_miss_rate::.cpu.data     0.010061                       # miss rate for demand accesses
system.cpu.dcache.demand_miss_rate::total     0.010061                       # miss rate for demand accesses
system.cpu.dcache.overall_miss_rate::.cpu.data     0.010061                       # miss rate for overall accesses
system.cpu.dcache.overall_miss_rate::total     0.010061                       # miss rate for overall accesses
system.cpu.dcache.demand_avg_miss_latency::.cpu.data 64019.417412                       # average overall miss latency
system.cpu.dcache.demand_avg_miss_latency::total 64019.417412                       # average overall miss latency
system.cpu.dcache.overall_avg_miss_latency::.cpu.data 64019.417412                       # average overall miss latency
system.cpu.dcache.overall_avg_miss_latency::total 64019.417412                       # average overall miss latency
system.cpu.dcache.blocked_cycles::no_mshrs        24001                       # number of cycles access was blocked
system.cpu.dcache.blocked_cycles::no_targets            0                       # number of cycles access was blocked
system.cpu.dcache.blocked::no_mshrs               854                       # number of cycles access was blocked
system.cpu.dcache.blocked::no_targets               0                       # number of cycles access was blocked
system.cpu.dcache.avg_blocked_cycles::no_mshrs    28.104215                       # average number of cycles each access was blocked
system.cpu.dcache.avg_blocked_cycles::no_targets          nan                       # average number of cycles each access was blocked
system.cpu.dcache.writebacks::.writebacks       243009                       # number of writebacks
system.cpu.dcache.writebacks::total            243009                       # number of writebacks
system.cpu.dcache.demand_mshr_hits::.cpu.data        92833                       # number of demand (read+write) MSHR hits
system.cpu.dcache.demand_mshr_hits::total        92833                       # number of demand (read+write) MSHR hits
system.cpu.dcache.overall_mshr_hits::.cpu.data        92833                       # number of overall MSHR hits
system.cpu.dcache.overall_mshr_hits::total        92833                       # number of overall MSHR hits
system.cpu.dcache.demand_mshr_misses::.cpu.data       258681                       # number of demand (read+write) MSHR misses
system.cpu.dcache.demand_mshr_misses::total       258681                       # number of demand (read+write) MSHR misses
system.cpu.dcache.overall_mshr_misses::.cpu.data       258681                       # number of overall MSHR misses
system.cpu.dcache.overall_mshr_misses::total       258681                       # number of overall MSHR misses
system.cpu.dcache.demand_mshr_miss_latency::.cpu.data  18126153492                       # number of demand (read+write) MSHR miss cycles
system.cpu.dcache.demand_mshr_miss_latency::total  18126153492                       # number of demand (read+write) MSHR miss cycles
system.cpu.dcache.overall_mshr_miss_latency::.cpu.data  18126153492                       # number of overall MSHR miss cycles
system.cpu.dcache.overall_mshr_miss_latency::total  18126153492                       # number of overall MSHR miss cycles
system.cpu.dcache.demand_mshr_miss_rate::.cpu.data     0.007404                       # mshr miss rate for demand accesses
system.cpu.dcache.demand_mshr_miss_rate::total     0.007404                       # mshr miss rate for demand accesses
system.cpu.dcache.overall_mshr_miss_rate::.cpu.data     0.007404                       # mshr miss rate for overall accesses
system.cpu.dcache.overall_mshr_miss_rate::total     0.007404                       # mshr miss rate for overall accesses
system.cpu.dcache.demand_avg_mshr_miss_latency::.cpu.data 70071.452840                       # average overall mshr miss latency
system.cpu.dcache.demand_avg_mshr_miss_latency::total 70071.452840                       # average overall mshr miss latency
system.cpu.dcache.overall_avg_mshr_miss_latency::.cpu.data 70071.452840                       # average overall mshr miss latency
system.cpu.dcache.overall_avg_mshr_miss_latency::total 70071.452840                       # average overall mshr miss latency
system.cpu.dcache.replacements                 258166                       # number of replacements
system.cpu.dcache.ReadReq_hits::.cpu.data     19202759                       # number of ReadReq hits
system.cpu.dcache.ReadReq_hits::total        19202759                       # number of ReadReq hits
system.cpu.dcache.ReadReq_misses::.cpu.data       158514                       # number of ReadReq misses
system.cpu.dcache.ReadReq_misses::total        158514                       # number of ReadReq misses
system.cpu.dcache.ReadReq_miss_latency::.cpu.data   8205045500                       # number of ReadReq miss cycles
system.cpu.dcache.ReadReq_miss_latency::total   8205045500                       # number of ReadReq miss cycles
system.cpu.dcache.ReadReq_accesses::.cpu.data     19361273                       # number of ReadReq accesses(hits+misses)
system.cpu.dcache.ReadReq_accesses::total     19361273                       # number of ReadReq accesses(hits+misses)
system.cpu.dcache.ReadReq_miss_rate::.cpu.data     0.008187                       # miss rate for ReadReq accesses
system.cpu.dcache.ReadReq_miss_rate::total     0.008187                       # miss rate for ReadReq accesses
system.cpu.dcache.ReadReq_avg_miss_latency::.cpu.data 51762.276518                       # average ReadReq miss latency
system.cpu.dcache.ReadReq_avg_miss_latency::total 51762.276518                       # average ReadReq miss latency
system.cpu.dcache.ReadReq_mshr_hits::.cpu.data        80556                       # number of ReadReq MSHR hits
system.cpu.dcache.ReadReq_mshr_hits::total        80556                       # number of ReadReq MSHR hits
system.cpu.dcache.ReadReq_mshr_misses::.cpu.data        77958                       # number of ReadReq MSHR misses
system.cpu.dcache.ReadReq_mshr_misses::total        77958                       # number of ReadReq MSHR misses
system.cpu.dcache.ReadReq_mshr_miss_latency::.cpu.data   4237951500                       # number of ReadReq MSHR miss cycles
system.cpu.dcache.ReadReq_mshr_miss_latency::total   4237951500                       # number of ReadReq MSHR miss cycles
system.cpu.dcache.ReadReq_mshr_miss_rate::.cpu.data     0.004026                       # mshr miss rate for ReadReq accesses
system.cpu.dcache.ReadReq_mshr_miss_rate::total     0.004026                       # mshr miss rate for ReadReq accesses
system.cpu.dcache.ReadReq_avg_mshr_miss_latency::.cpu.data 54361.983376                       # average ReadReq mshr miss latency
system.cpu.dcache.ReadReq_avg_mshr_miss_latency::total 54361.983376                       # average ReadReq mshr miss latency
system.cpu.dcache.WriteReq_hits::.cpu.data     15384585                       # number of WriteReq hits
system.cpu.dcache.WriteReq_hits::total       15384585                       # number of WriteReq hits
system.cpu.dcache.WriteReq_misses::.cpu.data       193000                       # number of WriteReq misses
system.cpu.dcache.WriteReq_misses::total       193000                       # number of WriteReq misses
system.cpu.dcache.WriteReq_miss_latency::.cpu.data  14298675992                       # number of WriteReq miss cycles
system.cpu.dcache.WriteReq_miss_latency::total  14298675992                       # number of WriteReq miss cycles
system.cpu.dcache.WriteReq_accesses::.cpu.data     15577585                       # number of WriteReq accesses(hits+misses)
system.cpu.dcache.WriteReq_accesses::total     15577585                       # number of WriteReq accesses(hits+misses)
system.cpu.dcache.WriteReq_miss_rate::.cpu.data     0.012390                       # miss rate for WriteReq accesses
system.cpu.dcache.WriteReq_miss_rate::total     0.012390                       # miss rate for WriteReq accesses
system.cpu.dcache.WriteReq_avg_miss_latency::.cpu.data 74086.404104                       # average WriteReq miss latency
system.cpu.dcache.WriteReq_avg_miss_latency::total 74086.404104                       # average WriteReq miss latency
system.cpu.dcache.WriteReq_mshr_hits::.cpu.data        12277                       # number of WriteReq MSHR hits
system.cpu.dcache.WriteReq_mshr_hits::total        12277                       # number of WriteReq MSHR hits
system.cpu.dcache.WriteReq_mshr_misses::.cpu.data       180723                       # number of WriteReq MSHR misses
system.cpu.dcache.WriteReq_mshr_misses::total       180723                       # number of WriteReq MSHR misses
system.cpu.dcache.WriteReq_mshr_miss_latency::.cpu.data  13888201992                       # number of WriteReq MSHR miss cycles
system.cpu.dcache.WriteReq_mshr_miss_latency::total  13888201992                       # number of WriteReq MSHR miss cycles
system.cpu.dcache.WriteReq_mshr_miss_rate::.cpu.data     0.011601                       # mshr miss rate for WriteReq accesses
system.cpu.dcache.WriteReq_mshr_miss_rate::total     0.011601                       # mshr miss rate for WriteReq accesses
system.cpu.dcache.WriteReq_avg_mshr_miss_latency::.cpu.data 76848.004914                       # average WriteReq mshr miss latency
system.cpu.dcache.WriteReq_avg_mshr_miss_latency::total 76848.004914                       # average WriteReq mshr miss latency
system.cpu.dcache.power_state.pwrStateResidencyTicks::UNDEFINED  41360262500                       # Cumulative time (in ticks) in various power states
system.cpu.dcache.tags.tagsinuse           511.650824                       # Cycle average of tags in use
system.cpu.dcache.tags.total_refs            34846025                       # Total number of references to valid blocks.
system.cpu.dcache.tags.sampled_refs            258678                       # Sample count of references to valid blocks.
system.cpu.dcache.tags.avg_refs            134.708112                       # Average number of references to valid blocks.
system.cpu.dcache.tags.warmup_cycle            163000                       # Cycle when the warmup percentage was hit.
system.cpu.dcache.tags.occ_blocks::.cpu.data   511.650824                       # Average occupied blocks per requestor
system.cpu.dcache.tags.occ_percent::.cpu.data     0.999318                       # Average percentage of cache occupancy
system.cpu.dcache.tags.occ_percent::total     0.999318                       # Average percentage of cache occupancy
system.cpu.dcache.tags.occ_task_id_blocks::1024          512                       # Occupied blocks per task id
system.cpu.dcache.tags.age_task_id_blocks_1024::0           31                       # Occupied blocks per task id
system.cpu.dcache.tags.age_task_id_blocks_1024::1          244                       # Occupied blocks per task id
system.cpu.dcache.tags.age_task_id_blocks_1024::2          207                       # Occupied blocks per task id
system.cpu.dcache.tags.age_task_id_blocks_1024::3           18                       # Occupied blocks per task id
system.cpu.dcache.tags.age_task_id_blocks_1024::4           12                       # Occupied blocks per task id
system.cpu.dcache.tags.occ_task_id_percent::1024            1                       # Percentage of cache occupancy per task id
system.cpu.dcache.tags.tag_accesses          70136394                       # Number of tag accesses
system.cpu.dcache.tags.data_accesses         70136394                       # Number of data accesses
system.cpu.dcache.tags.power_state.pwrStateResidencyTicks::UNDEFINED  41360262500                       # Cumulative time (in ticks) in various power states
system.cpu.decode.idleCycles                 19926174                       # Number of cycles decode is idle
system.cpu.decode.blockedCycles              29591016                       # Number of cycles decode is blocked
system.cpu.decode.runCycles                  30633951                       # Number of cycles decode is running
system.cpu.decode.unblockCycles               2094847                       # Number of cycles decode is unblocking
system.cpu.decode.squashCycles                 387194                       # Number of cycles decode is squashing
system.cpu.decode.branchResolved              9122619                       # Number of times decode resolved a  branch
system.cpu.decode.branchMispred                 96697                       # Number of times decode detected a branch misprediction
system.cpu.decode.decodedInsts              204319255                       # Number of instructions handled by decode
system.cpu.decode.squashedInsts                540588                       # Number of squashed instructions handled by decode
system.cpu.dtb.rdAccesses                    23485794                       # TLB accesses on read requests
system.cpu.dtb.wrAccesses                    15907403                       # TLB accesses on write requests
system.cpu.dtb.rdMisses                         23457                       # TLB misses on read requests
system.cpu.dtb.wrMisses                        109803                       # TLB misses on write requests
system.cpu.dtb.walker.power_state.pwrStateResidencyTicks::UNDEFINED  41360262500                       # Cumulative time (in ticks) in various power states
system.cpu.dtb_walker_cache.blocked_cycles::no_mshrs            0                       # number of cycles access was blocked
system.cpu.dtb_walker_cache.blocked_cycles::no_targets            0                       # number of cycles access was blocked
system.cpu.dtb_walker_cache.blocked::no_mshrs            0                       # number of cycles access was blocked
system.cpu.dtb_walker_cache.blocked::no_targets            0                       # number of cycles access was blocked
system.cpu.dtb_walker_cache.avg_blocked_cycles::no_mshrs          nan                       # average number of cycles each access was blocked
system.cpu.dtb_walker_cache.avg_blocked_cycles::no_targets          nan                       # average number of cycles each access was blocked
system.cpu.dtb_walker_cache.replacements            0                       # number of replacements
system.cpu.dtb_walker_cache.power_state.pwrStateResidencyTicks::UNDEFINED  41360262500                       # Cumulative time (in ticks) in various power states
system.cpu.dtb_walker_cache.tags.tagsinuse            0                       # Cycle average of tags in use
system.cpu.dtb_walker_cache.tags.total_refs            0                       # Total number of references to valid blocks.
system.cpu.dtb_walker_cache.tags.sampled_refs            0                       # Sample count of references to valid blocks.
system.cpu.dtb_walker_cache.tags.avg_refs          nan                       # Average number of references to valid blocks.
system.cpu.dtb_walker_cache.tags.warmup_cycle            0                       # Cycle when the warmup percentage was hit.
system.cpu.dtb_walker_cache.tags.tag_accesses            0                       # Number of tag accesses
system.cpu.dtb_walker_cache.tags.data_accesses            0                       # Number of data accesses
system.cpu.dtb_walker_cache.tags.power_state.pwrStateResidencyTicks::UNDEFINED  41360262500                       # Cumulative time (in ticks) in various power states
system.cpu.fetch.icacheStallCycles           21132515                       # Number of cycles fetch is stalled on an Icache miss
system.cpu.fetch.insts                      110758557                       # Number of instructions fetch has processed
system.cpu.fetch.branches                    23766302                       # Number of branches that fetch encountered
system.cpu.fetch.predictedBranches           10894877                       # Number of branches that fetch has predicted taken
system.cpu.fetch.cycles                      61014633                       # Number of cycles fetch has run and was not squashing or blocked
system.cpu.fetch.squashCycles                  967742                       # Number of cycles fetch has spent squashing
system.cpu.fetch.miscStallCycles                  310                       # Number of cycles fetch has spent waiting on interrupts,or bad addresses, or out of MSHRs
system.cpu.fetch.pendingTrapStallCycles          1831                       # Number of stall cycles due to pending traps
system.cpu.fetch.pendingQuiesceStallCycles            9                       # Number of stall cycles due to pending quiesce instructions
system.cpu.fetch.icacheWaitRetryStallCycles           13                       # Number of stall cycles due to full MSHR
system.cpu.fetch.cacheLines                  17310566                       # Number of cache lines fetched
system.cpu.fetch.icacheSquashes                169442                       # Number of outstanding Icache misses that were squashed
system.cpu.fetch.nisnDist::samples           82633182                       # Number of instructions fetched each cycle (Total)
system.cpu.fetch.nisnDist::mean              2.532768                       # Number of instructions fetched each cycle (Total)
system.cpu.fetch.nisnDist::stdev             3.358336                       # Number of instructions fetched each cycle (Total)
system.cpu.fetch.nisnDist::underflows               0      0.00%      0.00% # Number of instructions fetched each cycle (Total)
system.cpu.fetch.nisnDist::0                 47629098     57.64%     57.64% # Number of instructions fetched each cycle (Total)
system.cpu.fetch.nisnDist::1                  1500366      1.82%     59.45% # Number of instructions fetched each cycle (Total)
system.cpu.fetch.nisnDist::2                  3810364      4.61%     64.07% # Number of instructions fetched each cycle (Total)
system.cpu.fetch.nisnDist::3                  3158042      3.82%     67.89% # Number of instructions fetched each cycle (Total)
system.cpu.fetch.nisnDist::4                  1970027      2.38%     70.27% # Number of instructions fetched each cycle (Total)
system.cpu.fetch.nisnDist::5                  2315948      2.80%     73.07% # Number of instructions fetched each cycle (Total)
system.cpu.fetch.nisnDist::6                  2450967      2.97%     76.04% # Number of instructions fetched each cycle (Total)
system.cpu.fetch.nisnDist::7                  1857174      2.25%     78.29% # Number of instructions fetched each cycle (Total)
system.cpu.fetch.nisnDist::8                 17941196     21.71%    100.00% # Number of instructions fetched each cycle (Total)
system.cpu.fetch.nisnDist::overflows                0      0.00%    100.00% # Number of instructions fetched each cycle (Total)
system.cpu.fetch.nisnDist::min_value                0                       # Number of instructions fetched each cycle (Total)
system.cpu.fetch.nisnDist::max_value                8                       # Number of instructions fetched each cycle (Total)
system.cpu.fetch.nisnDist::total             82633182                       # Number of instructions fetched each cycle (Total)
system.cpu.fetch.branchRate                  0.287308                       # Number of branch fetches per cycle
system.cpu.fetch.rate                        1.338949                       # Number of inst fetches per cycle
system.cpu.icache.demand_hits::.cpu.inst     17164108                       # number of demand (read+write) hits
system.cpu.icache.demand_hits::total         17164108                       # number of demand (read+write) hits
system.cpu.icache.overall_hits::.cpu.inst     17164108                       # number of overall hits
system.cpu.icache.overall_hits::total        17164108                       # number of overall hits
system.cpu.icache.demand_misses::.cpu.inst       146457                       # number of demand (read+write) misses
system.cpu.icache.demand_misses::total         146457                       # number of demand (read+write) misses
system.cpu.icache.overall_misses::.cpu.inst       146457                       # number of overall misses
system.cpu.icache.overall_misses::total        146457                       # number of overall misses
system.cpu.icache.demand_miss_latency::.cpu.inst   2006064000                       # number of demand (read+write) miss cycles
system.cpu.icache.demand_miss_latency::total   2006064000                       # number of demand (read+write) miss cycles
system.cpu.icache.overall_miss_latency::.cpu.inst   2006064000                       # number of overall miss cycles
system.cpu.icache.overall_miss_latency::total   2006064000                       # number of overall miss cycles
system.cpu.icache.demand_accesses::.cpu.inst     17310565                       # number of demand (read+write) accesses
system.cpu.icache.demand_accesses::total     17310565                       # number of demand (read+write) accesses
system.cpu.icache.overall_accesses::.cpu.inst     17310565                       # number of overall (read+write) accesses
system.cpu.icache.overall_accesses::total     17310565                       # number of overall (read+write) accesses
system.cpu.icache.demand_miss_rate::.cpu.inst     0.008461                       # miss rate for demand accesses
system.cpu.icache.demand_miss_rate::total     0.008461                       # miss rate for demand accesses
system.cpu.icache.overall_miss_rate::.cpu.inst     0.008461                       # miss rate for overall accesses
system.cpu.icache.overall_miss_rate::total     0.008461                       # miss rate for overall accesses
system.cpu.icache.demand_avg_miss_latency::.cpu.inst 13697.289990                       # average overall miss latency
system.cpu.icache.demand_avg_miss_latency::total 13697.289990                       # average overall miss latency
system.cpu.icache.overall_avg_miss_latency::.cpu.inst 13697.289990                       # average overall miss latency
system.cpu.icache.overall_avg_miss_latency::total 13697.289990                       # average overall miss latency
system.cpu.icache.blocked_cycles::no_mshrs          369                       # number of cycles access was blocked
system.cpu.icache.blocked_cycles::no_targets            0                       # number of cycles access was blocked
system.cpu.icache.blocked::no_mshrs                 5                       # number of cycles access was blocked
system.cpu.icache.blocked::no_targets               0                       # number of cycles access was blocked
system.cpu.icache.avg_blocked_cycles::no_mshrs    73.800000                       # average number of cycles each access was blocked
system.cpu.icache.avg_blocked_cycles::no_targets          nan                       # average number of cycles each access was blocked
system.cpu.icache.writebacks::.writebacks       145374                       # number of writebacks
system.cpu.icache.writebacks::total            145374                       # number of writebacks
system.cpu.icache.demand_mshr_hits::.cpu.inst          574                       # number of demand (read+write) MSHR hits
system.cpu.icache.demand_mshr_hits::total          574                       # number of demand (read+write) MSHR hits
system.cpu.icache.overall_mshr_hits::.cpu.inst          574                       # number of overall MSHR hits
system.cpu.icache.overall_mshr_hits::total          574                       # number of overall MSHR hits
system.cpu.icache.demand_mshr_misses::.cpu.inst       145883                       # number of demand (read+write) MSHR misses
system.cpu.icache.demand_mshr_misses::total       145883                       # number of demand (read+write) MSHR misses
system.cpu.icache.overall_mshr_misses::.cpu.inst       145883                       # number of overall MSHR misses
system.cpu.icache.overall_mshr_misses::total       145883                       # number of overall MSHR misses
system.cpu.icache.demand_mshr_miss_latency::.cpu.inst   1835503000                       # number of demand (read+write) MSHR miss cycles
system.cpu.icache.demand_mshr_miss_latency::total   1835503000                       # number of demand (read+write) MSHR miss cycles
system.cpu.icache.overall_mshr_miss_latency::.cpu.inst   1835503000                       # number of overall MSHR miss cycles
system.cpu.icache.overall_mshr_miss_latency::total   1835503000                       # number of overall MSHR miss cycles
system.cpu.icache.demand_mshr_miss_rate::.cpu.inst     0.008427                       # mshr miss rate for demand accesses
system.cpu.icache.demand_mshr_miss_rate::total     0.008427                       # mshr miss rate for demand accesses
system.cpu.icache.overall_mshr_miss_rate::.cpu.inst     0.008427                       # mshr miss rate for overall accesses
system.cpu.icache.overall_mshr_miss_rate::total     0.008427                       # mshr miss rate for overall accesses
system.cpu.icache.demand_avg_mshr_miss_latency::.cpu.inst 12582.021209                       # average overall mshr miss latency
system.cpu.icache.demand_avg_mshr_miss_latency::total 12582.021209                       # average overall mshr miss latency
system.cpu.icache.overall_avg_mshr_miss_latency::.cpu.inst 12582.021209                       # average overall mshr miss latency
system.cpu.icache.overall_avg_mshr_miss_latency::total 12582.021209                       # average overall mshr miss latency
system.cpu.icache.replacements                 145374                       # number of replacements
system.cpu.icache.ReadReq_hits::.cpu.inst     17164108                       # number of ReadReq hits
system.cpu.icache.ReadReq_hits::total        17164108                       # number of ReadReq hits
system.cpu.icache.ReadReq_misses::.cpu.inst       146457                       # number of ReadReq misses
system.cpu.icache.ReadReq_misses::total        146457                       # number of ReadReq misses
system.cpu.icache.ReadReq_miss_latency::.cpu.inst   2006064000                       # number of ReadReq miss cycles
system.cpu.icache.ReadReq_miss_latency::total   2006064000                       # number of ReadReq miss cycles
system.cpu.icache.ReadReq_accesses::.cpu.inst     17310565                       # number of ReadReq accesses(hits+misses)
system.cpu.icache.ReadReq_accesses::total     17310565                       # number of ReadReq accesses(hits+misses)
system.cpu.icache.ReadReq_miss_rate::.cpu.inst     0.008461                       # miss rate for ReadReq accesses
system.cpu.icache.ReadReq_miss_rate::total     0.008461                       # miss rate for ReadReq accesses
system.cpu.icache.ReadReq_avg_miss_latency::.cpu.inst 13697.289990                       # average ReadReq miss latency
system.cpu.icache.ReadReq_avg_miss_latency::total 13697.289990                       # average ReadReq miss latency
system.cpu.icache.ReadReq_mshr_hits::.cpu.inst          574                       # number of ReadReq MSHR hits
system.cpu.icache.ReadReq_mshr_hits::total          574                       # number of ReadReq MSHR hits
system.cpu.icache.ReadReq_mshr_misses::.cpu.inst       145883                       # number of ReadReq MSHR misses
system.cpu.icache.ReadReq_mshr_misses::total       145883                       # number of ReadReq MSHR misses
system.cpu.icache.ReadReq_mshr_miss_latency::.cpu.inst   1835503000                       # number of ReadReq MSHR miss cycles
system.cpu.icache.ReadReq_mshr_miss_latency::total   1835503000                       # number of ReadReq MSHR miss cycles
system.cpu.icache.ReadReq_mshr_miss_rate::.cpu.inst     0.008427                       # mshr miss rate for ReadReq accesses
system.cpu.icache.ReadReq_mshr_miss_rate::total     0.008427                       # mshr miss rate for ReadReq accesses
system.cpu.icache.ReadReq_avg_mshr_miss_latency::.cpu.inst 12582.021209                       # average ReadReq mshr miss latency
system.cpu.icache.ReadReq_avg_mshr_miss_latency::total 12582.021209                       # average ReadReq mshr miss latency
system.cpu.icache.power_state.pwrStateResidencyTicks::UNDEFINED  41360262500                       # Cumulative time (in ticks) in various power states
system.cpu.icache.tags.tagsinuse           505.625778                       # Cycle average of tags in use
system.cpu.icache.tags.total_refs            17309991                       # Total number of references to valid blocks.
system.cpu.icache.tags.sampled_refs            145883                       # Sample count of references to valid blocks.
system.cpu.icache.tags.avg_refs            118.656670                       # Average number of references to valid blocks.
system.cpu.icache.tags.warmup_cycle             79500                       # Cycle when the warmup percentage was hit.
system.cpu.icache.tags.occ_blocks::.cpu.inst   505.625778                       # Average occupied blocks per requestor
system.cpu.icache.tags.occ_percent::.cpu.inst     0.987550                       # Average percentage of cache occupancy
system.cpu.icache.tags.occ_percent::total     0.987550                       # Average percentage of cache occupancy
system.cpu.icache.tags.occ_task_id_blocks::1024          506                       # Occupied blocks per task id
system.cpu.icache.tags.age_task_id_blocks_1024::0            2                       # Occupied blocks per task id
system.cpu.icache.tags.age_task_id_blocks_1024::1            2                       # Occupied blocks per task id
system.cpu.icache.tags.age_task_id_blocks_1024::3            2                       # Occupied blocks per task id
system.cpu.icache.tags.age_task_id_blocks_1024::4          500                       # Occupied blocks per task id
system.cpu.icache.tags.occ_task_id_percent::1024     0.988281                       # Percentage of cache occupancy per task id
system.cpu.icache.tags.tag_accesses          34767013                       # Number of tag accesses
system.cpu.icache.tags.data_accesses         34767013                       # Number of data accesses
system.cpu.icache.tags.power_state.pwrStateResidencyTicks::UNDEFINED  41360262500                       # Cumulative time (in ticks) in various power states
system.cpu.interrupts.clk_domain.clock           8000                       # Clock period in ticks
system.cpu.itb.rdAccesses                           0                       # TLB accesses on read requests
system.cpu.itb.wrAccesses                    17310833                       # TLB accesses on write requests
system.cpu.itb.rdMisses                             0                       # TLB misses on read requests
system.cpu.itb.wrMisses                           401                       # TLB misses on write requests
system.cpu.itb.walker.power_state.pwrStateResidencyTicks::UNDEFINED  41360262500                       # Cumulative time (in ticks) in various power states
system.cpu.itb_walker_cache.blocked_cycles::no_mshrs            0                       # number of cycles access was blocked
system.cpu.itb_walker_cache.blocked_cycles::no_targets            0                       # number of cycles access was blocked
system.cpu.itb_walker_cache.blocked::no_mshrs            0                       # number of cycles access was blocked
system.cpu.itb_walker_cache.blocked::no_targets            0                       # number of cycles access was blocked
system.cpu.itb_walker_cache.avg_blocked_cycles::no_mshrs          nan                       # average number of cycles each access was blocked
system.cpu.itb_walker_cache.avg_blocked_cycles::no_targets          nan                       # average number of cycles each access was blocked
system.cpu.itb_walker_cache.replacements            0                       # number of replacements
system.cpu.itb_walker_cache.power_state.pwrStateResidencyTicks::UNDEFINED  41360262500                       # Cumulative time (in ticks) in various power states
system.cpu.itb_walker_cache.tags.tagsinuse            0                       # Cycle average of tags in use
system.cpu.itb_walker_cache.tags.total_refs            0                       # Total number of references to valid blocks.
system.cpu.itb_walker_cache.tags.sampled_refs            0                       # Sample count of references to valid blocks.
system.cpu.itb_walker_cache.tags.avg_refs          nan                       # Average number of references to valid blocks.
system.cpu.itb_walker_cache.tags.warmup_cycle            0                       # Cycle when the warmup percentage was hit.
system.cpu.itb_walker_cache.tags.tag_accesses            0                       # Number of tag accesses
system.cpu.itb_walker_cache.tags.data_accesses            0                       # Number of data accesses
system.cpu.itb_walker_cache.tags.power_state.pwrStateResidencyTicks::UNDEFINED  41360262500                       # Cumulative time (in ticks) in various power states
system.cpu.lsq0.forwLoads                     4075879                       # Number of loads that had data forwarded from stores
system.cpu.lsq0.squashedLoads                 1280367                       # Number of loads squashed
system.cpu.lsq0.ignoredResponses                37875                       # Number of memory responses ignored because the instruction is squashed
system.cpu.lsq0.memOrderViolation                1172                       # Number of memory ordering violations
system.cpu.lsq0.squashedStores                 574802                       # Number of stores squashed
system.cpu.lsq0.rescheduledLoads                48031                       # Number of loads that were rescheduled
system.cpu.lsq0.blockedByCache                    478                       # Number of times an access to memory failed due to the cache being blocked
system.cpu.power_state.pwrStateResidencyTicks::ON  41360262500                       # Cumulative time (in ticks) in various power states
system.cpu.rename.squashCycles                 387194                       # Number of cycles rename is squashing
system.cpu.rename.idleCycles                 21008457                       # Number of cycles rename is idle
system.cpu.rename.blockCycles                 9518285                       # Number of cycles rename is blocking
system.cpu.rename.serializeStallCycles           2671                       # count of cycles rename stalledfor serializing inst
system.cpu.rename.runCycles                  31590838                       # Number of cycles rename is running
system.cpu.rename.unblockCycles              20125737                       # Number of cycles rename is unblocking
system.cpu.rename.renamedInsts              202929348                       # Number of instructions processed by rename
system.cpu.rename.ROBFullEvents                 64271                       # Number of times rename has blocked due to ROB full
system.cpu.rename.IQFullEvents                 717331                       # Number of times rename has blocked due to IQ full
system.cpu.rename.LQFullEvents                    916                       # Number of times rename has blocked due to LQ full
system.cpu.rename.SQFullEvents               19048820                       # Number of times rename has blocked due to SQ full
system.cpu.rename.renamedOperands           225011518                       # Number of destination operands rename has renamed
system.cpu.rename.lookups                   529592249                       # Number of register rename lookups that rename has made
system.cpu.rename.intLookups                310538522                       # Number of integer rename lookups
system.cpu.rename.fpLookups                   6203192                       # Number of floating rename lookups
system.cpu.rename.committedMaps             208332735                       # Number of HB maps that are committed
system.cpu.rename.undoneMaps                 16678725                       # Number of HB maps that are undone due to squashing
system.cpu.rename.serializing                      39                       # count of serializing insts renamed
system.cpu.rename.tempSerializing                  23                       # count of temporary serializing insts renamed
system.cpu.rename.skidInsts                  11517504                       # count of insts added to the skid buffer
system.cpu.rob.reads                        271120867                       # The number of ROB reads
system.cpu.rob.writes                       401129498                       # The number of ROB writes
system.cpu.thread_0.numInsts                100000001                       # Number of Instructions committed
system.cpu.thread_0.numOps                  188377356                       # Number of Ops committed
system.cpu.thread_0.numMemRefs                      0                       # Number of Memory References
system.cpu_clk_domain.clock                       500                       # Clock period in ticks
system.cpu_voltage_domain.voltage                   1                       # Voltage in Volts
system.l2.demand_hits::.cpu.inst               144524                       # number of demand (read+write) hits
system.l2.demand_hits::.cpu.data                49554                       # number of demand (read+write) hits
system.l2.demand_hits::total                   194078                       # number of demand (read+write) hits
system.l2.overall_hits::.cpu.inst              144524                       # number of overall hits
system.l2.overall_hits::.cpu.data               49554                       # number of overall hits
system.l2.overall_hits::total                  194078                       # number of overall hits
system.l2.demand_misses::.cpu.inst               1356                       # number of demand (read+write) misses
system.l2.demand_misses::.cpu.data             209124                       # number of demand (read+write) misses
system.l2.demand_misses::total                 210480                       # number of demand (read+write) misses
system.l2.overall_misses::.cpu.inst              1356                       # number of overall misses
system.l2.overall_misses::.cpu.data            209124                       # number of overall misses
system.l2.overall_misses::total                210480                       # number of overall misses
system.l2.demand_miss_latency::.cpu.inst     95107000                       # number of demand (read+write) miss cycles
system.l2.demand_miss_latency::.cpu.data  17205750000                       # number of demand (read+write) miss cycles
system.l2.demand_miss_latency::total      17300857000                       # number of demand (read+write) miss cycles
system.l2.overall_miss_latency::.cpu.inst     95107000                       # number of overall miss cycles
system.l2.overall_miss_latency::.cpu.data  17205750000                       # number of overall miss cycles
system.l2.overall_miss_latency::total     17300857000                       # number of overall miss cycles
system.l2.demand_accesses::.cpu.inst           145880                       # number of demand (read+write) accesses
system.l2.demand_accesses::.cpu.data           258678                       # number of demand (read+write) accesses
system.l2.demand_accesses::total               404558                       # number of demand (read+write) accesses
system.l2.overall_accesses::.cpu.inst          145880                       # number of overall (read+write) accesses
system.l2.overall_accesses::.cpu.data          258678                       # number of overall (read+write) accesses
system.l2.overall_accesses::total              404558                       # number of overall (read+write) accesses
system.l2.demand_miss_rate::.cpu.inst        0.009295                       # miss rate for demand accesses
system.l2.demand_miss_rate::.cpu.data        0.808434                       # miss rate for demand accesses
system.l2.demand_miss_rate::total            0.520272                       # miss rate for demand accesses
system.l2.overall_miss_rate::.cpu.inst       0.009295                       # miss rate for overall accesses
system.l2.overall_miss_rate::.cpu.data       0.808434                       # miss rate for overall accesses
system.l2.overall_miss_rate::total           0.520272                       # miss rate for overall accesses
system.l2.demand_avg_miss_latency::.cpu.inst 70137.905605                       # average overall miss latency
system.l2.demand_avg_miss_latency::.cpu.data 82275.348597                       # average overall miss latency
system.l2.demand_avg_miss_latency::total 82197.154124                       # average overall miss latency
[...]
system.mem_ctrls.dram.readBursts               210475                       # Number of DRAM read bursts
system.mem_ctrls.dram.writeBursts              198722                       # Number of DRAM write bursts
system.mem_ctrls.dram.perBankRdBursts::0        12918                       # Per bank write bursts
system.mem_ctrls.dram.perBankRdBursts::1        13100                       # Per bank write bursts
system.mem_ctrls.dram.perBankRdBursts::2        13060                       # Per bank write bursts
system.mem_ctrls.dram.perBankRdBursts::3        13200                       # Per bank write bursts
system.mem_ctrls.dram.perBankRdBursts::4        13264                       # Per bank write bursts
system.mem_ctrls.dram.perBankRdBursts::5        13366                       # Per bank write bursts
system.mem_ctrls.dram.perBankRdBursts::6        13124                       # Per bank write bursts
system.mem_ctrls.dram.perBankRdBursts::7        13202                       # Per bank write bursts
system.mem_ctrls.dram.perBankRdBursts::8        13283                       # Per bank write bursts
system.mem_ctrls.dram.perBankRdBursts::9        13086                       # Per bank write bursts
system.mem_ctrls.dram.perBankRdBursts::10        13037                       # Per bank write bursts
system.mem_ctrls.dram.perBankRdBursts::11        13111                       # Per bank write bursts
system.mem_ctrls.dram.perBankRdBursts::12        13207                       # Per bank write bursts
system.mem_ctrls.dram.perBankRdBursts::13        13256                       # Per bank write bursts
system.mem_ctrls.dram.perBankRdBursts::14        13111                       # Per bank write bursts
system.mem_ctrls.dram.perBankRdBursts::15        13150                       # Per bank write bursts
system.mem_ctrls.dram.perBankWrBursts::0        12177                       # Per bank write bursts
system.mem_ctrls.dram.perBankWrBursts::1        12311                       # Per bank write bursts
system.mem_ctrls.dram.perBankWrBursts::2        12394                       # Per bank write bursts
system.mem_ctrls.dram.perBankWrBursts::3        12501                       # Per bank write bursts
system.mem_ctrls.dram.perBankWrBursts::4        12479                       # Per bank write bursts
system.mem_ctrls.dram.perBankWrBursts::5        12564                       # Per bank write bursts
system.mem_ctrls.dram.perBankWrBursts::6        12384                       # Per bank write bursts
system.mem_ctrls.dram.perBankWrBursts::7        12466                       # Per bank write bursts
system.mem_ctrls.dram.perBankWrBursts::8        12541                       # Per bank write bursts
system.mem_ctrls.dram.perBankWrBursts::9        12386                       # Per bank write bursts
system.mem_ctrls.dram.perBankWrBursts::10        12318                       # Per bank write bursts
system.mem_ctrls.dram.perBankWrBursts::11        12435                       # Per bank write bursts
system.mem_ctrls.dram.perBankWrBursts::12        12433                       # Per bank write bursts
system.mem_ctrls.dram.perBankWrBursts::13        12479                       # Per bank write bursts
system.mem_ctrls.dram.perBankWrBursts::14        12388                       # Per bank write bursts
system.mem_ctrls.dram.perBankWrBursts::15        12466                       # Per bank write bursts
system.mem_ctrls.dram.totQLat              4267813750                       # Total ticks spent queuing
system.mem_ctrls.dram.totBusLat            1052375000                       # Total ticks spent in databus transfers
system.mem_ctrls.dram.totMemAccLat         8214220000                       # Total ticks spent from burst creation until serviced by the DRAM
system.mem_ctrls.dram.avgQLat                20277.06                       # Average queueing delay per DRAM burst
system.mem_ctrls.dram.avgBusLat               5000.00                       # Average bus latency per DRAM burst
system.mem_ctrls.dram.avgMemAccLat           39027.06                       # Average memory access latency per DRAM burst
system.mem_ctrls.dram.readRowHits               78031                       # Number of row buffer hits during reads
system.mem_ctrls.dram.writeRowHits              91489                       # Number of row buffer hits during writes
system.mem_ctrls.dram.readRowHitRate            37.07                       # Row buffer hit rate for reads
system.mem_ctrls.dram.writeRowHitRate           46.04                       # Row buffer hit rate for writes
system.mem_ctrls.dram.bytesPerActivate::samples       239667                       # Bytes accessed per row activation
system.mem_ctrls.dram.bytesPerActivate::mean   109.267876                       # Bytes accessed per row activation
system.mem_ctrls.dram.bytesPerActivate::gmean    86.778047                       # Bytes accessed per row activation
system.mem_ctrls.dram.bytesPerActivate::stdev   110.836328                       # Bytes accessed per row activation
system.mem_ctrls.dram.bytesPerActivate::0-127       173715     72.48%     72.48% # Bytes accessed per row activation
system.mem_ctrls.dram.bytesPerActivate::128-255        45266     18.89%     91.37% # Bytes accessed per row activation
system.mem_ctrls.dram.bytesPerActivate::256-383         9588      4.00%     95.37% # Bytes accessed per row activation
system.mem_ctrls.dram.bytesPerActivate::384-511         5139      2.14%     97.51% # Bytes accessed per row activation
system.mem_ctrls.dram.bytesPerActivate::512-639         3506      1.46%     98.98% # Bytes accessed per row activation
system.mem_ctrls.dram.bytesPerActivate::640-767         1341      0.56%     99.54% # Bytes accessed per row activation
system.mem_ctrls.dram.bytesPerActivate::768-895          637      0.27%     99.80% # Bytes accessed per row activation
system.mem_ctrls.dram.bytesPerActivate::896-1023          207      0.09%     99.89% # Bytes accessed per row activation
system.mem_ctrls.dram.bytesPerActivate::1024-1151          268      0.11%    100.00% # Bytes accessed per row activation
system.mem_ctrls.dram.bytesPerActivate::total       239667                       # Bytes accessed per row activation
system.mem_ctrls.dram.bytesRead              13470400                       # Total number of bytes read from DRAM
system.mem_ctrls.dram.bytesWritten           12718208                       # Total number of bytes written to DRAM
system.mem_ctrls.dram.avgRdBW              325.684587                       # Average DRAM read bandwidth in MiBytes/s
system.mem_ctrls.dram.avgWrBW              307.498242                       # Average DRAM write bandwidth in MiBytes/s
system.mem_ctrls.dram.peakBW                 12800.00                       # Theoretical peak bandwidth in MiByte/s
system.mem_ctrls.dram.busUtil                    4.95                       # Data bus utilization in percentage
system.mem_ctrls.dram.busUtilRead                2.54                       # Data bus utilization in percentage for reads
system.mem_ctrls.dram.busUtilWrite               2.40                       # Data bus utilization in percentage for writes
system.mem_ctrls.dram.pageHitRate               41.43                       # Row buffer hit rate, read and write combined
system.mem_ctrls.dram.power_state.pwrStateResidencyTicks::UNDEFINED  41360262500                       # Cumulative time (in ticks) in various power states
system.mem_ctrls.dram.rank0.actEnergy       855736140                       # Energy for activate commands per rank (pJ)
system.mem_ctrls.dram.rank0.preEnergy       454815570                       # Energy for precharge commands per rank (pJ)
system.mem_ctrls.dram.rank0.readEnergy      751370760                       # Energy for read commands per rank (pJ)
system.mem_ctrls.dram.rank0.writeEnergy     518220720                       # Energy for write commands per rank (pJ)
system.mem_ctrls.dram.rank0.refreshEnergy 3264353040.000000                       # Energy for refresh commands per rank (pJ)
system.mem_ctrls.dram.rank0.actBackEnergy  17871248760                       # Energy for active background per rank (pJ)
system.mem_ctrls.dram.rank0.preBackEnergy    832868160                       # Energy for precharge background per rank (pJ)
system.mem_ctrls.dram.rank0.actPowerDownEnergy            0                       # Energy for active power-down per rank (pJ)
system.mem_ctrls.dram.rank0.prePowerDownEnergy            0                       # Energy for precharge power-down per rank (pJ)
system.mem_ctrls.dram.rank0.selfRefreshEnergy            0                       # Energy for self refresh per rank (pJ)
system.mem_ctrls.dram.rank0.totalEnergy   24548613150                       # Total energy per rank (pJ)
system.mem_ctrls.dram.rank0.averagePower   593.531367                       # Core power per rank (mW)
system.mem_ctrls.dram.rank0.totalIdleTime            0                       # Total Idle time Per DRAM Rank
system.mem_ctrls.dram.rank0.pwrStateTime::IDLE   2014922250                       # Time in different power states
system.mem_ctrls.dram.rank0.pwrStateTime::REF   1380860000                       # Time in different power states
system.mem_ctrls.dram.rank0.pwrStateTime::SREF            0                       # Time in different power states
system.mem_ctrls.dram.rank0.pwrStateTime::PRE_PDN            0                       # Time in different power states
system.mem_ctrls.dram.rank0.pwrStateTime::ACT  37964480250                       # Time in different power states
system.mem_ctrls.dram.rank0.pwrStateTime::ACT_PDN            0                       # Time in different power states
system.mem_ctrls.dram.rank1.actEnergy       855557640                       # Energy for activate commands per rank (pJ)
system.mem_ctrls.dram.rank1.preEnergy       454720695                       # Energy for precharge commands per rank (pJ)
system.mem_ctrls.dram.rank1.readEnergy      751420740                       # Energy for read commands per rank (pJ)
system.mem_ctrls.dram.rank1.writeEnergy     519108120                       # Energy for write commands per rank (pJ)
system.mem_ctrls.dram.rank1.refreshEnergy 3264353040.000000                       # Energy for refresh commands per rank (pJ)
system.mem_ctrls.dram.rank1.actBackEnergy  17898015390                       # Energy for active background per rank (pJ)
system.mem_ctrls.dram.rank1.preBackEnergy    810327840                       # Energy for precharge background per rank (pJ)
system.mem_ctrls.dram.rank1.actPowerDownEnergy            0                       # Energy for active power-down per rank (pJ)
system.mem_ctrls.dram.rank1.prePowerDownEnergy            0                       # Energy for precharge power-down per rank (pJ)
system.mem_ctrls.dram.rank1.selfRefreshEnergy            0                       # Energy for self refresh per rank (pJ)
system.mem_ctrls.dram.rank1.totalEnergy   24553503465                       # Total energy per rank (pJ)
system.mem_ctrls.dram.rank1.averagePower   593.649604                       # Core power per rank (mW)
system.mem_ctrls.dram.rank1.totalIdleTime            0                       # Total Idle time Per DRAM Rank
system.mem_ctrls.dram.rank1.pwrStateTime::IDLE   1955906250                       # Time in different power states
system.mem_ctrls.dram.rank1.pwrStateTime::REF   1380860000                       # Time in different power states
system.mem_ctrls.dram.rank1.pwrStateTime::SREF            0                       # Time in different power states
system.mem_ctrls.dram.rank1.pwrStateTime::PRE_PDN            0                       # Time in different power states
system.mem_ctrls.dram.rank1.pwrStateTime::ACT  38023496250                       # Time in different power states
system.mem_ctrls.dram.rank1.pwrStateTime::ACT_PDN            0                       # Time in different power states
system.mem_ctrls.power_state.pwrStateResidencyTicks::UNDEFINED  41360262500                       # Cumulative time (in ticks) in various power states
system.membus.trans_dist::ReadResp              49434                       # Transaction distribution
system.membus.trans_dist::WritebackDirty       198750                       # Transaction distribution
system.membus.trans_dist::CleanEvict             3005                       # Transaction distribution
system.membus.trans_dist::ReadExReq            161046                       # Transaction distribution
system.membus.trans_dist::ReadExResp           161046                       # Transaction distribution
system.membus.trans_dist::ReadSharedReq         49434                       # Transaction distribution
system.membus.pkt_count_system.l2.mem_side_port::system.mem_ctrls.port       622715                       # Packet count per connected requestor and responder (bytes)
system.membus.pkt_count_system.l2.mem_side_port::total       622715                       # Packet count per connected requestor and responder (bytes)
system.membus.pkt_count::total                 622715                       # Packet count per connected requestor and responder (bytes)
system.membus.pkt_size_system.l2.mem_side_port::system.mem_ctrls.port     26190720                       # Cumulative packet size per connected requestor and responder (bytes)
system.membus.pkt_size_system.l2.mem_side_port::total     26190720                       # Cumulative packet size per connected requestor and responder (bytes)
system.membus.pkt_size::total                26190720                       # Cumulative packet size per connected requestor and responder (bytes)
system.membus.snoops                                0                       # Total snoops (count)
system.membus.snoopTraffic                          0                       # Total snoop traffic (bytes)
system.membus.snoop_fanout::samples            210480                       # Request fanout histogram
system.membus.snoop_fanout::mean                    0                       # Request fanout histogram
system.membus.snoop_fanout::stdev                   0                       # Request fanout histogram
system.membus.snoop_fanout::underflows              0      0.00%      0.00% # Request fanout histogram
system.membus.snoop_fanout::0                  210480    100.00%    100.00% # Request fanout histogram
system.membus.snoop_fanout::1                       0      0.00%    100.00% # Request fanout histogram
system.membus.snoop_fanout::overflows               0      0.00%    100.00% # Request fanout histogram
system.membus.snoop_fanout::min_value               0                       # Request fanout histogram
system.membus.snoop_fanout::max_value               0                       # Request fanout histogram
system.membus.snoop_fanout::total              210480                       # Request fanout histogram
system.membus.power_state.pwrStateResidencyTicks::UNDEFINED  41360262500                       # Cumulative time (in ticks) in various power states
system.membus.reqLayer2.occupancy           301808750                       # Layer occupancy (ticks)
system.membus.reqLayer2.utilization               0.7                       # Layer utilization (%)
system.membus.respLayer1.occupancy          263100000                       # Layer occupancy (ticks)
system.membus.respLayer1.utilization              0.6                       # Layer utilization (%)
system.tol2bus.trans_dist::ReadResp            223820                       # Transaction distribution
system.tol2bus.trans_dist::WritebackDirty       441759                       # Transaction distribution
system.tol2bus.trans_dist::WritebackClean       145374                       # Transaction distribution
system.tol2bus.trans_dist::CleanEvict           19007                       # Transaction distribution
system.tol2bus.trans_dist::UpgradeReq               3                       # Transaction distribution
system.tol2bus.trans_dist::UpgradeResp              3                       # Transaction distribution
system.tol2bus.trans_dist::ReadExReq           180741                       # Transaction distribution
system.tol2bus.trans_dist::ReadExResp          180741                       # Transaction distribution
system.tol2bus.trans_dist::ReadCleanReq        145883                       # Transaction distribution
system.tol2bus.trans_dist::ReadSharedReq        77937                       # Transaction distribution
system.tol2bus.pkt_count_system.cpu.icache.mem_side_port::system.l2.cpu_side_port       437137                       # Packet count per connected requestor and responder (bytes)
system.tol2bus.pkt_count_system.cpu.dcache.mem_side_port::system.l2.cpu_side_port       775528                       # Packet count per connected requestor and responder (bytes)
system.tol2bus.pkt_count::total               1212665                       # Packet count per connected requestor and responder (bytes)
system.tol2bus.pkt_size_system.cpu.icache.mem_side_port::system.l2.cpu_side_port     18640256                       # Cumulative packet size per connected requestor and responder (bytes)
system.tol2bus.pkt_size_system.cpu.dcache.mem_side_port::system.l2.cpu_side_port     32107968                       # Cumulative packet size per connected requestor and responder (bytes)
system.tol2bus.pkt_size::total               50748224                       # Cumulative packet size per connected requestor and responder (bytes)
system.tol2bus.snoops                          202603                       # Total snoops (count)
system.tol2bus.snoopTraffic                  12720192                       # Total snoop traffic (bytes)
system.tol2bus.snoop_fanout::samples           607164                       # Request fanout histogram
system.tol2bus.snoop_fanout::mean            0.001670                       # Request fanout histogram
system.tol2bus.snoop_fanout::stdev           0.041671                       # Request fanout histogram
system.tol2bus.snoop_fanout::underflows             0      0.00%      0.00% # Request fanout histogram
system.tol2bus.snoop_fanout::0                 606171     99.84%     99.84% # Request fanout histogram
system.tol2bus.snoop_fanout::1                    972      0.16%    100.00% # Request fanout histogram
system.tol2bus.snoop_fanout::2                     21      0.00%    100.00% # Request fanout histogram
system.tol2bus.snoop_fanout::3                      0      0.00%    100.00% # Request fanout histogram
system.tol2bus.snoop_fanout::4                      0      0.00%    100.00% # Request fanout histogram
system.tol2bus.snoop_fanout::overflows              0      0.00%    100.00% # Request fanout histogram
system.tol2bus.snoop_fanout::min_value              0                       # Request fanout histogram
system.tol2bus.snoop_fanout::max_value              2                       # Request fanout histogram
system.tol2bus.snoop_fanout::total             607164                       # Request fanout histogram
system.tol2bus.power_state.pwrStateResidencyTicks::UNDEFINED  41360262500                       # Cumulative time (in ticks) in various power states
system.tol2bus.reqLayer0.occupancy          792435000                       # Layer occupancy (ticks)
system.tol2bus.reqLayer0.utilization              1.9                       # Layer utilization (%)
system.tol2bus.respLayer0.occupancy         218832983                       # Layer occupancy (ticks)
system.tol2bus.respLayer0.utilization             0.5                       # Layer utilization (%)
system.tol2bus.respLayer1.occupancy         388018500                       # Layer occupancy (ticks)
system.tol2bus.respLayer1.utilization             0.9                       # Layer utilization (%)
system.voltage_domain.voltage                       1                       # Voltage in Volts

---------- End Simulation Statistics   ----------
