
---------- Begin Simulation Statistics ----------
final_tick                                 5341503500                       # Number of ticks from beginning of simulation (restored from checkpoints and never reset)
host_inst_rate                                  71882                       # Simulator instruction rate (inst/s)
host_mem_usage                                 675124                       # Number of bytes of host memory used
host_op_rate                                   135476                       # Simulator op (including micro ops) rate (op/s)
host_seconds                                   139.12                       # Real time elapsed on the host
host_tick_rate                               38395556                       # Simulator tick rate (ticks/s)
sim_freq                                 1000000000000                       # Frequency of simulated ticks
sim_insts                                    10000001                       # Number of instructions simulated
sim_ops                                      18847133                       # Number of ops (including micro ops) simulated
sim_seconds                                  0.005342                       # Number of seconds simulated
sim_ticks                                  5341503500                       # Number of ticks simulated
system.cpu.cc_regfile_reads                  12107893                       # number of cc regfile reads
system.cpu.cc_regfile_writes                  5845797                       # number of cc regfile writes
system.cpu.committedInsts                    10000001                       # Number of Instructions Simulated
system.cpu.committedOps                      18847133                       # Number of Ops (including micro ops) Simulated
system.cpu.cpi                               1.068301                       # CPI: Cycles Per Instruction
system.cpu.cpi_total                         1.068301                       # CPI: Total CPI of All Threads
system.cpu.fp_regfile_reads                    538889                       # number of floating regfile reads
system.cpu.fp_regfile_writes                   301172                       # number of floating regfile writes
system.cpu.idleCycles                           85869                       # Total number of cycles that the CPU has spent unscheduled due to idling
system.cpu.iew.branchMispredicts                52797                       # Number of branch mispredicts detected at execute
system.cpu.iew.exec_branches                  2179144                       # Number of branches executed
system.cpu.iew.exec_nop                             0                       # number of nop insts executed
system.cpu.iew.exec_rate                     1.860960                       # Inst execution rate
system.cpu.iew.exec_refs                      4044436                       # number of memory reference insts executed
system.cpu.iew.exec_stores                    1648950                       # Number of stores executed
system.cpu.iew.exec_swp                             0                       # number of swp insts executed
system.cpu.iew.iewBlockCycles                  864875                       # Number of cycles IEW is blocking
system.cpu.iew.iewDispLoadInsts               2440752                       # Number of dispatched load instructions
system.cpu.iew.iewDispNonSpecInsts                 69                       # Number of dispatched non-speculative instructions
system.cpu.iew.iewDispSquashedInsts              1827                       # Number of squashed instructions skipped by dispatch
system.cpu.iew.iewDispStoreInsts              1688143                       # Number of dispatched store instructions
system.cpu.iew.iewDispatchedInsts            20433154                       # Number of instructions dispatched to IQ
system.cpu.iew.iewExecLoadInsts               2395486                       # Number of load instructions executed
system.cpu.iew.iewExecSquashedInsts            117333                       # Number of squashed instructions skipped in execute
system.cpu.iew.iewExecutedInsts              19880646                       # Number of executed instructions
system.cpu.iew.iewIQFullEvents                   6897                       # Number of times the IQ has become full, causing a stall
system.cpu.iew.iewIdleCycles                        0                       # Number of cycles IEW is idle
system.cpu.iew.iewLSQFullEvents                705689                       # Number of times the LSQ has become full, causing a stall
system.cpu.iew.iewSquashCycles                  43112                       # Number of cycles IEW is squashing
system.cpu.iew.iewUnblockCycles                719414                       # Number of cycles IEW is unblocking
system.cpu.iew.memOrderViolationEvents            212                       # Number of memory order violations
system.cpu.iew.predictedNotTakenIncorrect        41811                       # Number of branches that were predicted not taken incorrectly
system.cpu.iew.predictedTakenIncorrect          10986                       # Number of branches that were predicted taken incorrectly
system.cpu.iew.wb_consumers                  22553817                       # num instructions consuming a value
system.cpu.iew.wb_count                      19805800                       # cumulative count of insts written-back
system.cpu.iew.wb_fanout                     0.609777                       # average fanout of values written-back
system.cpu.iew.wb_producers                  13752805                       # num instructions producing a value
system.cpu.iew.wb_rate                       1.853953                       # insts written-back per cycle
system.cpu.iew.wb_sent                       19833020                       # cumulative count of insts sent to commit
system.cpu.int_regfile_reads                 30743655                       # number of integer regfile reads
system.cpu.int_regfile_writes                15857007                       # number of integer regfile writes
system.cpu.ipc                               0.936066                       # IPC: Instructions Per Cycle
system.cpu.ipc_total                         0.936066                       # IPC: Total IPC of All Threads
system.cpu.iq.FU_type_0::No_OpClass            194171      0.97%      0.97% # Type of FU issued
system.cpu.iq.FU_type_0::IntAlu              15294571     76.48%     77.45% # Type of FU issued
system.cpu.iq.FU_type_0::IntMult                86143      0.43%     77.88% # Type of FU issued
system.cpu.iq.FU_type_0::IntDiv                117637      0.59%     78.47% # Type of FU issued
system.cpu.iq.FU_type_0::FloatAdd               42825      0.21%     78.68% # Type of FU issued
system.cpu.iq.FU_type_0::FloatCmp                   0      0.00%     78.68% # Type of FU issued
system.cpu.iq.FU_type_0::FloatCvt                  32      0.00%     78.68% # Type of FU issued
system.cpu.iq.FU_type_0::FloatMult                  0      0.00%     78.68% # Type of FU issued
system.cpu.iq.FU_type_0::FloatMultAcc               0      0.00%     78.68% # Type of FU issued
system.cpu.iq.FU_type_0::FloatDiv                   0      0.00%     78.68% # Type of FU issued
system.cpu.iq.FU_type_0::FloatMisc                  0      0.00%     78.68% # Type of FU issued
system.cpu.iq.FU_type_0::FloatSqrt                  0      0.00%     78.68% # Type of FU issued
system.cpu.iq.FU_type_0::SimdAdd                  471      0.00%     78.69% # Type of FU issued
system.cpu.iq.FU_type_0::SimdAddAcc                 0      0.00%     78.69% # Type of FU issued
system.cpu.iq.FU_type_0::SimdAlu                22674      0.11%     78.80% # Type of FU issued
system.cpu.iq.FU_type_0::SimdCmp                   20      0.00%     78.80% # Type of FU issued
system.cpu.iq.FU_type_0::SimdCvt                35911      0.18%     78.98% # Type of FU issued
system.cpu.iq.FU_type_0::SimdMisc              123240      0.62%     79.60% # Type of FU issued
system.cpu.iq.FU_type_0::SimdMult                   0      0.00%     79.60% # Type of FU issued
system.cpu.iq.FU_type_0::SimdMultAcc                0      0.00%     79.60% # Type of FU issued
system.cpu.iq.FU_type_0::SimdShift                331      0.00%     79.60% # Type of FU issued
system.cpu.iq.FU_type_0::SimdShiftAcc               0      0.00%     79.60% # Type of FU issued
system.cpu.iq.FU_type_0::SimdDiv                    0      0.00%     79.60% # Type of FU issued
system.cpu.iq.FU_type_0::SimdSqrt                   0      0.00%     79.60% # Type of FU issued
system.cpu.iq.FU_type_0::SimdFloatAdd               0      0.00%     79.60% # Type of FU issued
system.cpu.iq.FU_type_0::SimdFloatAlu               0      0.00%     79.60% # Type of FU issued
system.cpu.iq.FU_type_0::SimdFloatCmp               0      0.00%     79.60% # Type of FU issued
system.cpu.iq.FU_type_0::SimdFloatCvt               4      0.00%     79.60% # Type of FU issued
system.cpu.iq.FU_type_0::SimdFloatDiv               0      0.00%     79.60% # Type of FU issued
system.cpu.iq.FU_type_0::SimdFloatMisc              0      0.00%     79.60% # Type of FU issued
system.cpu.iq.FU_type_0::SimdFloatMult              2      0.00%     79.60% # Type of FU issued
system.cpu.iq.FU_type_0::SimdFloatMultAcc            0      0.00%     79.60% # Type of FU issued
system.cpu.iq.FU_type_0::SimdFloatSqrt              0      0.00%     79.60% # Type of FU issued
system.cpu.iq.FU_type_0::SimdReduceAdd              0      0.00%     79.60% # Type of FU issued
system.cpu.iq.FU_type_0::SimdReduceAlu              0      0.00%     79.60% # Type of FU issued
system.cpu.iq.FU_type_0::SimdReduceCmp              0      0.00%     79.60% # Type of FU issued
system.cpu.iq.FU_type_0::SimdFloatReduceAdd            0      0.00%     79.60% # Type of FU issued
system.cpu.iq.FU_type_0::SimdFloatReduceCmp            0      0.00%     79.60% # Type of FU issued
system.cpu.iq.FU_type_0::SimdAes                    0      0.00%     79.60% # Type of FU issued
system.cpu.iq.FU_type_0::SimdAesMix                 0      0.00%     79.60% # Type of FU issued
system.cpu.iq.FU_type_0::SimdSha1Hash               0      0.00%     79.60% # Type of FU issued
system.cpu.iq.FU_type_0::SimdSha1Hash2              0      0.00%     79.60% # Type of FU issued
system.cpu.iq.FU_type_0::SimdSha256Hash             0      0.00%     79.60% # Type of FU issued
system.cpu.iq.FU_type_0::SimdSha256Hash2            0      0.00%     79.60% # Type of FU issued
system.cpu.iq.FU_type_0::SimdShaSigma2              0      0.00%     79.60% # Type of FU issued
system.cpu.iq.FU_type_0::SimdShaSigma3              0      0.00%     79.60% # Type of FU issued
system.cpu.iq.FU_type_0::SimdPredAlu                0      0.00%     79.60% # Type of FU issued
system.cpu.iq.FU_type_0::MemRead              2299364     11.50%     91.10% # Type of FU issued
system.cpu.iq.FU_type_0::MemWrite             1509881      7.55%     98.65% # Type of FU issued
system.cpu.iq.FU_type_0::FloatMemRead          121453      0.61%     99.25% # Type of FU issued
system.cpu.iq.FU_type_0::FloatMemWrite         149250      0.75%    100.00% # Type of FU issued
system.cpu.iq.FU_type_0::IprAccess                  0      0.00%    100.00% # Type of FU issued
system.cpu.iq.FU_type_0::InstPrefetch               0      0.00%    100.00% # Type of FU issued
system.cpu.iq.FU_type_0::total               19997980                       # Type of FU issued
system.cpu.iq.fp_alu_accesses                  535572                       # Number of floating point alu accesses
system.cpu.iq.fp_inst_queue_reads             1059950                       # Number of floating instruction queue reads
system.cpu.iq.fp_inst_queue_wakeup_accesses       476821                       # Number of floating instruction queue wakeup accesses
system.cpu.iq.fp_inst_queue_writes             781783                       # Number of floating instruction queue writes
system.cpu.iq.fu_busy_cnt                      300992                       # FU busy when requested
system.cpu.iq.fu_busy_rate                   0.015051                       # FU busy rate (busy events/executed inst)
system.cpu.iq.fu_full::No_OpClass                   0      0.00%      0.00% # attempts to use FU when none available
system.cpu.iq.fu_full::IntAlu                  249024     82.73%     82.73% # attempts to use FU when none available
system.cpu.iq.fu_full::IntMult                      0      0.00%     82.73% # attempts to use FU when none available
system.cpu.iq.fu_full::IntDiv                       0      0.00%     82.73% # attempts to use FU when none available
system.cpu.iq.fu_full::FloatAdd                     0      0.00%     82.73% # attempts to use FU when none available
system.cpu.iq.fu_full::FloatCmp                     0      0.00%     82.73% # attempts to use FU when none available
system.cpu.iq.fu_full::FloatCvt                     0      0.00%     82.73% # attempts to use FU when none available
system.cpu.iq.fu_full::FloatMult                    0      0.00%     82.73% # attempts to use FU when none available
system.cpu.iq.fu_full::FloatMultAcc                 0      0.00%     82.73% # attempts to use FU when none available
system.cpu.iq.fu_full::FloatDiv                     0      0.00%     82.73% # attempts to use FU when none available
system.cpu.iq.fu_full::FloatMisc                    0      0.00%     82.73% # attempts to use FU when none available
system.cpu.iq.fu_full::FloatSqrt                    0      0.00%     82.73% # attempts to use FU when none available
system.cpu.iq.fu_full::SimdAdd                      0      0.00%     82.73% # attempts to use FU when none available
system.cpu.iq.fu_full::SimdAddAcc                   0      0.00%     82.73% # attempts to use FU when none available
system.cpu.iq.fu_full::SimdAlu                     21      0.01%     82.74% # attempts to use FU when none available
system.cpu.iq.fu_full::SimdCmp                      1      0.00%     82.74% # attempts to use FU when none available
system.cpu.iq.fu_full::SimdCvt                    628      0.21%     82.95% # attempts to use FU when none available
system.cpu.iq.fu_full::SimdMisc                     5      0.00%     82.95% # attempts to use FU when none available
system.cpu.iq.fu_full::SimdMult                     0      0.00%     82.95% # attempts to use FU when none available
system.cpu.iq.fu_full::SimdMultAcc                  0      0.00%     82.95% # attempts to use FU when none available
system.cpu.iq.fu_full::SimdShift                    1      0.00%     82.95% # attempts to use FU when none available
system.cpu.iq.fu_full::SimdShiftAcc                 0      0.00%     82.95% # attempts to use FU when none available
system.cpu.iq.fu_full::SimdDiv                      0      0.00%     82.95% # attempts to use FU when none available
system.cpu.iq.fu_full::SimdSqrt                     0      0.00%     82.95% # attempts to use FU when none available
system.cpu.iq.fu_full::SimdFloatAdd                 0      0.00%     82.95% # attempts to use FU when none available
system.cpu.iq.fu_full::SimdFloatAlu                 0      0.00%     82.95% # attempts to use FU when none available
system.cpu.iq.fu_full::SimdFloatCmp                 0      0.00%     82.95% # attempts to use FU when none available
system.cpu.iq.fu_full::SimdFloatCvt                 0      0.00%     82.95% # attempts to use FU when none available
system.cpu.iq.fu_full::SimdFloatDiv                 0      0.00%     82.95% # attempts to use FU when none available
system.cpu.iq.fu_full::SimdFloatMisc                0      0.00%     82.95% # attempts to use FU when none available
system.cpu.iq.fu_full::SimdFloatMult                0      0.00%     82.95% # attempts to use FU when none available
system.cpu.iq.fu_full::SimdFloatMultAcc             0      0.00%     82.95% # attempts to use FU when none available
system.cpu.iq.fu_full::SimdFloatSqrt                0      0.00%     82.95% # attempts to use FU when none available
system.cpu.iq.fu_full::SimdReduceAdd                0      0.00%     82.95% # attempts to use FU when none available
system.cpu.iq.fu_full::SimdReduceAlu                0      0.00%     82.95% # attempts to use FU when none available
system.cpu.iq.fu_full::SimdReduceCmp                0      0.00%     82.95% # attempts to use FU when none available
system.cpu.iq.fu_full::SimdFloatReduceAdd            0      0.00%     82.95% # attempts to use FU when none available
system.cpu.iq.fu_full::SimdFloatReduceCmp            0      0.00%     82.95% # attempts to use FU when none available
system.cpu.iq.fu_full::SimdAes                      0      0.00%     82.95% # attempts to use FU when none available
system.cpu.iq.fu_full::SimdAesMix                   0      0.00%     82.95% # attempts to use FU when none available
system.cpu.iq.fu_full::SimdSha1Hash                 0      0.00%     82.95% # attempts to use FU when none available
system.cpu.iq.fu_full::SimdSha1Hash2                0      0.00%     82.95% # attempts to use FU when none available
system.cpu.iq.fu_full::SimdSha256Hash               0      0.00%     82.95% # attempts to use FU when none available
system.cpu.iq.fu_full::SimdSha256Hash2              0      0.00%     82.95% # attempts to use FU when none available
system.cpu.iq.fu_full::SimdShaSigma2                0      0.00%     82.95% # attempts to use FU when none available
system.cpu.iq.fu_full::SimdShaSigma3                0      0.00%     82.95% # attempts to use FU when none available
system.cpu.iq.fu_full::SimdPredAlu                  0      0.00%     82.95% # attempts to use FU when none available
system.cpu.iq.fu_full::MemRead                  23194      7.71%     90.66% # attempts to use FU when none available
system.cpu.iq.fu_full::MemWrite                 16121      5.36%     96.01% # attempts to use FU when none available
system.cpu.iq.fu_full::FloatMemRead              1593      0.53%     96.54% # attempts to use FU when none available
system.cpu.iq.fu_full::FloatMemWrite            10404      3.46%    100.00% # attempts to use FU when none available
system.cpu.iq.fu_full::IprAccess                    0      0.00%    100.00% # attempts to use FU when none available
system.cpu.iq.fu_full::InstPrefetch                 0      0.00%    100.00% # attempts to use FU when none available
system.cpu.iq.int_alu_accesses               19569229                       # Number of integer alu accesses
system.cpu.iq.int_inst_queue_reads           49844661                       # Number of integer instruction queue reads
system.cpu.iq.int_inst_queue_wakeup_accesses     19328979                       # Number of integer instruction queue wakeup accesses
system.cpu.iq.int_inst_queue_writes          21237574                       # Number of integer instruction queue writes
system.cpu.iq.iqInstsAdded                   20432987                       # Number of instructions added to the IQ (excludes non-spec)
system.cpu.iq.iqInstsIssued                  19997980                       # Number of instructions issued
system.cpu.iq.iqNonSpecInstsAdded                 167                       # Number of non-speculative instructions added to the IQ
system.cpu.iq.iqSquashedInstsExamined         1586009                       # Number of squashed instructions iterated over during squash; mainly for profiling
system.cpu.iq.iqSquashedInstsIssued             10521                       # Number of squashed instructions issued
system.cpu.iq.iqSquashedNonSpecRemoved            101                       # Number of squashed non-spec instructions that were removed
system.cpu.iq.iqSquashedOperandsExamined      2053816                       # Number of squashed operands that are examined and possibly removed from graph
system.cpu.iq.issued_per_cycle::samples      10597139                       # Number of insts issued each cycle
system.cpu.iq.issued_per_cycle::mean         1.887111                       # Number of insts issued each cycle
system.cpu.iq.issued_per_cycle::stdev        2.374616                       # Number of insts issued each cycle
system.cpu.iq.issued_per_cycle::underflows            0      0.00%      0.00% # Number of insts issued each cycle
system.cpu.iq.issued_per_cycle::0             5329610     50.29%     50.29% # Number of insts issued each cycle
system.cpu.iq.issued_per_cycle::1              778240      7.34%     57.64% # Number of insts issued each cycle
system.cpu.iq.issued_per_cycle::2              897828      8.47%     66.11% # Number of insts issued each cycle
system.cpu.iq.issued_per_cycle::3              931725      8.79%     74.90% # Number of insts issued each cycle
system.cpu.iq.issued_per_cycle::4              768188      7.25%     82.15% # Number of insts issued each cycle
system.cpu.iq.issued_per_cycle::5              610373      5.76%     87.91% # Number of insts issued each cycle
system.cpu.iq.issued_per_cycle::6              684789      6.46%     94.37% # Number of insts issued each cycle
system.cpu.iq.issued_per_cycle::7              375530      3.54%     97.92% # Number of insts issued each cycle
system.cpu.iq.issued_per_cycle::8              220856      2.08%    100.00% # Number of insts issued each cycle
system.cpu.iq.issued_per_cycle::overflows            0      0.00%    100.00% # Number of insts issued each cycle
system.cpu.iq.issued_per_cycle::min_value            0                       # Number of insts issued each cycle
system.cpu.iq.issued_per_cycle::max_value            8                       # Number of insts issued each cycle
system.cpu.iq.issued_per_cycle::total        10597139                       # Number of insts issued each cycle
system.cpu.iq.rate                           1.871943                       # Inst issue rate
system.cpu.iq.vec_alu_accesses                      0                       # Number of vector alu accesses
system.cpu.iq.vec_inst_queue_reads                  0                       # Number of vector instruction queue reads
system.cpu.iq.vec_inst_queue_wakeup_accesses            0                       # Number of vector instruction queue wakeup accesses
system.cpu.iq.vec_inst_queue_writes                 0                       # Number of vector instruction queue writes
system.cpu.memDep0.conflictingLoads             72030                       # Number of conflicting loads.
system.cpu.memDep0.conflictingStores            19400                       # Number of conflicting stores.
system.cpu.memDep0.insertedLoads              2440752                       # Number of loads inserted to the mem dependence unit.
system.cpu.memDep0.insertedStores             1688143                       # Number of stores inserted to the mem dependence unit.
system.cpu.misc_regfile_reads                 8383536                       # number of misc regfile reads
system.cpu.misc_regfile_writes                     18                       # number of misc regfile writes
system.cpu.numCycles                         10683008                       # number of cpu cycles simulated
system.cpu.numWorkItemsCompleted                    0                       # number of work items this cpu completed
system.cpu.numWorkItemsStarted                      0                       # number of work items this cpu started
system.cpu.timesIdled                             904                       # Number of times that the entire CPU went into an idle state and unscheduled itself
system.cpu.workload.numSyscalls                    54                       # Number of system calls
system.membus.snoop_filter.hit_multi_requests            0                       # Number of requests hitting in the snoop filter with multiple (>1) holders of the requested data.
system.membus.snoop_filter.hit_multi_snoops            0                       # Number of snoops hitting in the snoop filter with multiple (>1) holders of the requested data.
system.membus.snoop_filter.hit_single_requests        30269                       # Number of requests hitting in the snoop filter with a single holder of the requested data.
system.membus.snoop_filter.hit_single_snoops            0                       # Number of snoops hitting in the snoop filter with a single holder of the requested data.
system.membus.snoop_filter.tot_requests         69262                       # Total number of requests made to the snoop filter.
system.membus.snoop_filter.tot_snoops               0                       # Total number of snoops made to the snoop filter.
system.tol2bus.snoop_filter.hit_multi_requests           13                       # Number of requests hitting in the snoop filter with multiple (>1) holders of the requested data.
system.tol2bus.snoop_filter.hit_multi_snoops            2                       # Number of snoops hitting in the snoop filter with multiple (>1) holders of the requested data.
system.tol2bus.snoop_filter.hit_single_requests        61005                       # Number of requests hitting in the snoop filter with a single holder of the requested data.
system.tol2bus.snoop_filter.hit_single_snoops          581                       # Number of snoops hitting in the snoop filter with a single holder of the requested data.
system.tol2bus.snoop_filter.tot_requests       123032                       # Total number of requests made to the snoop filter.
system.tol2bus.snoop_filter.tot_snoops            583                       # Total number of snoops made to the snoop filter.
system.clk_domain.clock                           250                       # Clock period in ticks
system.cpu.branchPred.lookups                 2387479                       # Number of BP lookups
system.cpu.branchPred.condPredicted           1946106                       # Number of conditional branches predicted
system.cpu.branchPred.condIncorrect             53064                       # Number of conditional branches incorrect
system.cpu.branchPred.BTBLookups              1011476                       # Number of BTB lookups
system.cpu.branchPred.BTBHits                  912079                       # Number of BTB hits
system.cpu.branchPred.BTBHitPct             90.173074                       # BTB Hit Percentage
system.cpu.branchPred.RASUsed                  118176                       # Number of times the RAS was used to get a target.
system.cpu.branchPred.RASIncorrect                  7                       # Number of incorrect RAS predictions.
system.cpu.branchPred.indirectLookups           52270                       # Number of indirect predictor lookups.
system.cpu.branchPred.indirectHits              48971                       # Number of indirect target hits.
system.cpu.branchPred.indirectMisses             3299                       # Number of indirect misses.
system.cpu.branchPred.indirectMispredicted          435                       # Number of mispredicted indirect branches.
system.cpu.commit.commitSquashedInsts         1577205                       # The number of squashed insts skipped by commit
system.cpu.commit.commitNonSpecStalls              66                       # The number of times commit has been forced to stall to communicate backwards
system.cpu.commit.branchMispredicts             42165                       # The number of times a branch was mispredicted
system.cpu.commit.numCommittedDist::samples     10377222                       # Number of insts commited each cycle
system.cpu.commit.numCommittedDist::mean     1.816202                       # Number of insts commited each cycle
system.cpu.commit.numCommittedDist::stdev     2.661431                       # Number of insts commited each cycle
system.cpu.commit.numCommittedDist::underflows            0      0.00%      0.00% # Number of insts commited each cycle
system.cpu.commit.numCommittedDist::0         5708464     55.01%     55.01% # Number of insts commited each cycle
system.cpu.commit.numCommittedDist::1         1082042     10.43%     65.44% # Number of insts commited each cycle
system.cpu.commit.numCommittedDist::2          551655      5.32%     70.75% # Number of insts commited each cycle
system.cpu.commit.numCommittedDist::3          931295      8.97%     79.73% # Number of insts commited each cycle
system.cpu.commit.numCommittedDist::4          245330      2.36%     82.09% # Number of insts commited each cycle
system.cpu.commit.numCommittedDist::5          374099      3.61%     85.70% # Number of insts commited each cycle
system.cpu.commit.numCommittedDist::6          333948      3.22%     88.91% # Number of insts commited each cycle
system.cpu.commit.numCommittedDist::7          190719      1.84%     90.75% # Number of insts commited each cycle
system.cpu.commit.numCommittedDist::8          959670      9.25%    100.00% # Number of insts commited each cycle
system.cpu.commit.numCommittedDist::overflows            0      0.00%    100.00% # Number of insts commited each cycle
system.cpu.commit.numCommittedDist::min_value            0                       # Number of insts commited each cycle
system.cpu.commit.numCommittedDist::max_value            8                       # Number of insts commited each cycle
system.cpu.commit.numCommittedDist::total     10377222                       # Number of insts commited each cycle
system.cpu.commit.instsCommitted             10000001                       # Number of instructions committed
system.cpu.commit.opsCommitted               18847133                       # Number of ops (including micro ops) committed
system.cpu.commit.memRefs                     3855806                       # Number of memory references committed
system.cpu.commit.loads                       2239682                       # Number of loads committed
system.cpu.commit.amos                              0                       # Number of atomic instructions committed
system.cpu.commit.membars                          32                       # Number of memory barriers committed
system.cpu.commit.branches                    2096089                       # Number of branches committed
system.cpu.commit.vector                            0                       # Number of committed Vector instructions.
system.cpu.commit.floating                     432909                       # Number of committed floating point instructions.
system.cpu.commit.integer                    18491276                       # Number of committed integer instructions.
system.cpu.commit.functionCalls                105987                       # Number of function calls committed.
system.cpu.commit.committedInstType_0::No_OpClass       186599      0.99%      0.99% # Class of committed instruction
system.cpu.commit.committedInstType_0::IntAlu     14415807     76.49%     77.48% # Class of committed instruction
system.cpu.commit.committedInstType_0::IntMult        83587      0.44%     77.92% # Class of committed instruction
system.cpu.commit.committedInstType_0::IntDiv       113626      0.60%     78.52% # Class of committed instruction
system.cpu.commit.committedInstType_0::FloatAdd        42444      0.23%     78.75% # Class of committed instruction
system.cpu.commit.committedInstType_0::FloatCmp            0      0.00%     78.75% # Class of committed instruction
system.cpu.commit.committedInstType_0::FloatCvt           32      0.00%     78.75% # Class of committed instruction
system.cpu.commit.committedInstType_0::FloatMult            0      0.00%     78.75% # Class of committed instruction
system.cpu.commit.committedInstType_0::FloatMultAcc            0      0.00%     78.75% # Class of committed instruction
system.cpu.commit.committedInstType_0::FloatDiv            0      0.00%     78.75% # Class of committed instruction
system.cpu.commit.committedInstType_0::FloatMisc            0      0.00%     78.75% # Class of committed instruction
system.cpu.commit.committedInstType_0::FloatSqrt            0      0.00%     78.75% # Class of committed instruction
system.cpu.commit.committedInstType_0::SimdAdd          398      0.00%     78.75% # Class of committed instruction
system.cpu.commit.committedInstType_0::SimdAddAcc            0      0.00%     78.75% # Class of committed instruction
system.cpu.commit.committedInstType_0::SimdAlu        11366      0.06%     78.81% # Class of committed instruction
system.cpu.commit.committedInstType_0::SimdCmp           20      0.00%     78.81% # Class of committed instruction
system.cpu.commit.committedInstType_0::SimdCvt        23970      0.13%     78.94% # Class of committed instruction
system.cpu.commit.committedInstType_0::SimdMisc       113367      0.60%     79.54% # Class of committed instruction
system.cpu.commit.committedInstType_0::SimdMult            0      0.00%     79.54% # Class of committed instruction
system.cpu.commit.committedInstType_0::SimdMultAcc            0      0.00%     79.54% # Class of committed instruction
system.cpu.commit.committedInstType_0::SimdShift          105      0.00%     79.54% # Class of committed instruction
system.cpu.commit.committedInstType_0::SimdShiftAcc            0      0.00%     79.54% # Class of committed instruction
system.cpu.commit.committedInstType_0::SimdDiv            0      0.00%     79.54% # Class of committed instruction
system.cpu.commit.committedInstType_0::SimdSqrt            0      0.00%     79.54% # Class of committed instruction
system.cpu.commit.committedInstType_0::SimdFloatAdd            0      0.00%     79.54% # Class of committed instruction
system.cpu.commit.committedInstType_0::SimdFloatAlu            0      0.00%     79.54% # Class of committed instruction
system.cpu.commit.committedInstType_0::SimdFloatCmp            0      0.00%     79.54% # Class of committed instruction
system.cpu.commit.committedInstType_0::SimdFloatCvt            4      0.00%     79.54% # Class of committed instruction
system.cpu.commit.committedInstType_0::SimdFloatDiv            0      0.00%     79.54% # Class of committed instruction
system.cpu.commit.committedInstType_0::SimdFloatMisc            0      0.00%     79.54% # Class of committed instruction
system.cpu.commit.committedInstType_0::SimdFloatMult            2      0.00%     79.54% # Class of committed instruction
system.cpu.commit.committedInstType_0::SimdFloatMultAcc            0      0.00%     79.54% # Class of committed instruction
system.cpu.commit.committedInstType_0::SimdFloatSqrt            0      0.00%     79.54% # Class of committed instruction
system.cpu.commit.committedInstType_0::SimdReduceAdd            0      0.00%     79.54% # Class of committed instruction
system.cpu.commit.committedInstType_0::SimdReduceAlu            0      0.00%     79.54% # Class of committed instruction
system.cpu.commit.committedInstType_0::SimdReduceCmp            0      0.00%     79.54% # Class of committed instruction
system.cpu.commit.committedInstType_0::SimdFloatReduceAdd            0      0.00%     79.54% # Class of committed instruction
system.cpu.commit.committedInstType_0::SimdFloatReduceCmp            0      0.00%     79.54% # Class of committed instruction
system.cpu.commit.committedInstType_0::SimdAes            0      0.00%     79.54% # Class of committed instruction
system.cpu.commit.committedInstType_0::SimdAesMix            0      0.00%     79.54% # Class of committed instruction
system.cpu.commit.committedInstType_0::SimdSha1Hash            0      0.00%     79.54% # Class of committed instruction
system.cpu.commit.committedInstType_0::SimdSha1Hash2            0      0.00%     79.54% # Class of committed instruction
system.cpu.commit.committedInstType_0::SimdSha256Hash            0      0.00%     79.54% # Class of committed instruction
system.cpu.commit.committedInstType_0::SimdSha256Hash2            0      0.00%     79.54% # Class of committed instruction
system.cpu.commit.committedInstType_0::SimdShaSigma2            0      0.00%     79.54% # Class of committed instruction
system.cpu.commit.committedInstType_0::SimdShaSigma3            0      0.00%     79.54% # Class of committed instruction
system.cpu.commit.committedInstType_0::SimdPredAlu            0      0.00%     79.54% # Class of committed instruction
system.cpu.commit.committedInstType_0::MemRead      2173523     11.53%     91.07% # Class of committed instruction
system.cpu.commit.committedInstType_0::MemWrite      1467717      7.79%     98.86% # Class of committed instruction
system.cpu.commit.committedInstType_0::FloatMemRead        66159      0.35%     99.21% # Class of committed instruction
system.cpu.commit.committedInstType_0::FloatMemWrite       148407      0.79%    100.00% # Class of committed instruction
system.cpu.commit.committedInstType_0::IprAccess            0      0.00%    100.00% # Class of committed instruction
system.cpu.commit.committedInstType_0::InstPrefetch            0      0.00%    100.00% # Class of committed instruction
system.cpu.commit.committedInstType_0::total     18847133                       # Class of committed instruction
system.cpu.commit.commitEligibleSamples        959670                       # number cycles where commit BW limit reached
system.cpu.dcache.demand_hits::.cpu.data      3480207                       # number of demand (read+write) hits
system.cpu.dcache.demand_hits::total          3480207                       # number of demand (read+write) hits
system.cpu.dcache.overall_hits::.cpu.data      3480207                       # number of overall hits
system.cpu.dcache.overall_hits::total         3480207                       # number of overall hits
system.cpu.dcache.demand_misses::.cpu.data        69751                       # number of demand (read+write) misses
system.cpu.dcache.demand_misses::total          69751                       # number of demand (read+write) misses
system.cpu.dcache.overall_misses::.cpu.data        69751                       # number of overall misses
system.cpu.dcache.overall_misses::total         69751                       # number of overall misses
system.cpu.dcache.demand_miss_latency::.cpu.data   4430717498                       # number of demand (read+write) miss cycles
system.cpu.dcache.demand_miss_latency::total   4430717498                       # number of demand (read+write) miss cycles
system.cpu.dcache.overall_miss_latency::.cpu.data   4430717498                       # number of overall miss cycles
system.cpu.dcache.overall_miss_latency::total   4430717498                       # number of overall miss cycles
system.cpu.dcache.demand_accesses::.cpu.data      3549958                       # number of demand (read+write) accesses
system.cpu.dcache.demand_accesses::total      3549958                       # number of demand (read+write) accesses
system.cpu.dcache.overall_accesses::.cpu.data      3549958                       # number of overall (read+write) accesses
system.cpu.dcache.overall_accesses::total      3549958                       # number of overall (read+write) accesses
system.cpu.dcache.demand_miss_rate::.cpu.data     0.019648                       # miss rate for demand accesses
system.cpu.dcache.demand_miss_rate::total     0.019648                       # miss rate for demand accesses
system.cpu.dcache.overall_miss_rate::.cpu.data     0.019648                       # miss rate for overall accesses
system.cpu.dcache.overall_miss_rate::total     0.019648                       # miss rate for overall accesses
system.cpu.dcache.demand_avg_miss_latency::.cpu.data 63521.920804                       # average overall miss latency
system.cpu.dcache.demand_avg_miss_latency::total 63521.920804                       # average overall miss latency
system.cpu.dcache.overall_avg_miss_latency::.cpu.data 63521.920804                       # average overall miss latency
system.cpu.dcache.overall_avg_miss_latency::total 63521.920804                       # average overall miss latency
system.cpu.dcache.blocked_cycles::no_mshrs        16369                       # number of cycles access was blocked
system.cpu.dcache.blocked_cycles::no_targets            0                       # number of cycles access was blocked
system.cpu.dcache.blocked::no_mshrs               382                       # number of cycles access was blocked
system.cpu.dcache.blocked::no_targets               0                       # number of cycles access was blocked
system.cpu.dcache.avg_blocked_cycles::no_mshrs    42.850785                       # average number of cycles each access was blocked
system.cpu.dcache.avg_blocked_cycles::no_targets          nan                       # average number of cycles each access was blocked
system.cpu.dcache.writebacks::.writebacks        40543                       # number of writebacks
system.cpu.dcache.writebacks::total             40543                       # number of writebacks
system.cpu.dcache.demand_mshr_hits::.cpu.data        24954                       # number of demand (read+write) MSHR hits
system.cpu.dcache.demand_mshr_hits::total        24954                       # number of demand (read+write) MSHR hits
system.cpu.dcache.overall_mshr_hits::.cpu.data        24954                       # number of overall MSHR hits
system.cpu.dcache.overall_mshr_hits::total        24954                       # number of overall MSHR hits
system.cpu.dcache.demand_mshr_misses::.cpu.data        44797                       # number of demand (read+write) MSHR misses
system.cpu.dcache.demand_mshr_misses::total        44797                       # number of demand (read+write) MSHR misses
system.cpu.dcache.overall_mshr_misses::.cpu.data        44797                       # number of overall MSHR misses
system.cpu.dcache.overall_mshr_misses::total        44797                       # number of overall MSHR misses
system.cpu.dcache.demand_mshr_miss_latency::.cpu.data   3137975498                       # number of demand (read+write) MSHR miss cycles
system.cpu.dcache.demand_mshr_miss_latency::total   3137975498                       # number of demand (read+write) MSHR miss cycles
system.cpu.dcache.overall_mshr_miss_latency::.cpu.data   3137975498                       # number of overall MSHR miss cycles
system.cpu.dcache.overall_mshr_miss_latency::total   3137975498                       # number of overall MSHR miss cycles
system.cpu.dcache.demand_mshr_miss_rate::.cpu.data     0.012619                       # mshr miss rate for demand accesses
system.cpu.dcache.demand_mshr_miss_rate::total     0.012619                       # mshr miss rate for demand accesses
system.cpu.dcache.overall_mshr_miss_rate::.cpu.data     0.012619                       # mshr miss rate for overall accesses
system.cpu.dcache.overall_mshr_miss_rate::total     0.012619                       # mshr miss rate for overall accesses
system.cpu.dcache.demand_avg_mshr_miss_latency::.cpu.data 70048.786704                       # average overall mshr miss latency
system.cpu.dcache.demand_avg_mshr_miss_latency::total 70048.786704                       # average overall mshr miss latency
system.cpu.dcache.overall_avg_mshr_miss_latency::.cpu.data 70048.786704                       # average overall mshr miss latency
system.cpu.dcache.overall_avg_mshr_miss_latency::total 70048.786704                       # average overall mshr miss latency
system.cpu.dcache.replacements                  44283                       # number of replacements
system.cpu.dcache.ReadReq_hits::.cpu.data      1899152                       # number of ReadReq hits
system.cpu.dcache.ReadReq_hits::total         1899152                       # number of ReadReq hits
system.cpu.dcache.ReadReq_misses::.cpu.data        34680                       # number of ReadReq misses
system.cpu.dcache.ReadReq_misses::total         34680                       # number of ReadReq misses
system.cpu.dcache.ReadReq_miss_latency::.cpu.data   1918205000                       # number of ReadReq miss cycles
system.cpu.dcache.ReadReq_miss_latency::total   1918205000                       # number of ReadReq miss cycles
system.cpu.dcache.ReadReq_accesses::.cpu.data      1933832                       # number of ReadReq accesses(hits+misses)
system.cpu.dcache.ReadReq_accesses::total      1933832                       # number of ReadReq accesses(hits+misses)
system.cpu.dcache.ReadReq_miss_rate::.cpu.data     0.017933                       # miss rate for ReadReq accesses
system.cpu.dcache.ReadReq_miss_rate::total     0.017933                       # miss rate for ReadReq accesses
system.cpu.dcache.ReadReq_avg_miss_latency::.cpu.data 55311.562860                       # average ReadReq miss latency
system.cpu.dcache.ReadReq_avg_miss_latency::total 55311.562860                       # average ReadReq miss latency
system.cpu.dcache.ReadReq_mshr_hits::.cpu.data        22377                       # number of ReadReq MSHR hits
system.cpu.dcache.ReadReq_mshr_hits::total        22377                       # number of ReadReq MSHR hits
system.cpu.dcache.ReadReq_mshr_misses::.cpu.data        12303                       # number of ReadReq MSHR misses
system.cpu.dcache.ReadReq_mshr_misses::total        12303                       # number of ReadReq MSHR misses
system.cpu.dcache.ReadReq_mshr_miss_latency::.cpu.data    707180000                       # number of ReadReq MSHR miss cycles
system.cpu.dcache.ReadReq_mshr_miss_latency::total    707180000                       # number of ReadReq MSHR miss cycles
system.cpu.dcache.ReadReq_mshr_miss_rate::.cpu.data     0.006362                       # mshr miss rate for ReadReq accesses
system.cpu.dcache.ReadReq_mshr_miss_rate::total     0.006362                       # mshr miss rate for ReadReq accesses
system.cpu.dcache.ReadReq_avg_mshr_miss_latency::.cpu.data 57480.289360                       # average ReadReq mshr miss latency
system.cpu.dcache.ReadReq_avg_mshr_miss_latency::total 57480.289360                       # average ReadReq mshr miss latency
system.cpu.dcache.WriteReq_hits::.cpu.data      1581055                       # number of WriteReq hits
system.cpu.dcache.WriteReq_hits::total        1581055                       # number of WriteReq hits
system.cpu.dcache.WriteReq_misses::.cpu.data        35071                       # number of WriteReq misses
system.cpu.dcache.WriteReq_misses::total        35071                       # number of WriteReq misses
system.cpu.dcache.WriteReq_miss_latency::.cpu.data   2512512498                       # number of WriteReq miss cycles
system.cpu.dcache.WriteReq_miss_latency::total   2512512498                       # number of WriteReq miss cycles
system.cpu.dcache.WriteReq_accesses::.cpu.data      1616126                       # number of WriteReq accesses(hits+misses)
system.cpu.dcache.WriteReq_accesses::total      1616126                       # number of WriteReq accesses(hits+misses)
system.cpu.dcache.WriteReq_miss_rate::.cpu.data     0.021701                       # miss rate for WriteReq accesses
system.cpu.dcache.WriteReq_miss_rate::total     0.021701                       # miss rate for WriteReq accesses
system.cpu.dcache.WriteReq_avg_miss_latency::.cpu.data 71640.743007                       # average WriteReq miss latency
system.cpu.dcache.WriteReq_avg_miss_latency::total 71640.743007                       # average WriteReq miss latency
system.cpu.dcache.WriteReq_mshr_hits::.cpu.data         2577                       # number of WriteReq MSHR hits
system.cpu.dcache.WriteReq_mshr_hits::total         2577                       # number of WriteReq MSHR hits
system.cpu.dcache.WriteReq_mshr_misses::.cpu.data        32494                       # number of WriteReq MSHR misses
system.cpu.dcache.WriteReq_mshr_misses::total        32494                       # number of WriteReq MSHR misses
system.cpu.dcache.WriteReq_mshr_miss_latency::.cpu.data   2430795498                       # number of WriteReq MSHR miss cycles
system.cpu.dcache.WriteReq_mshr_miss_latency::total   2430795498                       # number of WriteReq MSHR miss cycles
system.cpu.dcache.WriteReq_mshr_miss_rate::.cpu.data     0.020106                       # mshr miss rate for WriteReq accesses
system.cpu.dcache.WriteReq_mshr_miss_rate::total     0.020106                       # mshr miss rate for WriteReq accesses
system.cpu.dcache.WriteReq_avg_mshr_miss_latency::.cpu.data 74807.518250                       # average WriteReq mshr miss latency
system.cpu.dcache.WriteReq_avg_mshr_miss_latency::total 74807.518250                       # average WriteReq mshr miss latency
system.cpu.dcache.power_state.pwrStateResidencyTicks::UNDEFINED   5341503500                       # Cumulative time (in ticks) in various power states
system.cpu.dcache.tags.tagsinuse           509.288851                       # Cycle average of tags in use
system.cpu.dcache.tags.total_refs             3525005                       # Total number of references to valid blocks.
system.cpu.dcache.tags.sampled_refs             44795                       # Sample count of references to valid blocks.
system.cpu.dcache.tags.avg_refs             78.691930                       # Average number of references to valid blocks.
system.cpu.dcache.tags.warmup_cycle            163000                       # Cycle when the warmup percentage was hit.
system.cpu.dcache.tags.occ_blocks::.cpu.data   509.288851                       # Average occupied blocks per requestor
system.cpu.dcache.tags.occ_percent::.cpu.data     0.994705                       # Average percentage of cache occupancy
system.cpu.dcache.tags.occ_percent::total     0.994705                       # Average percentage of cache occupancy
system.cpu.dcache.tags.occ_task_id_blocks::1024          512                       # Occupied blocks per task id
system.cpu.dcache.tags.age_task_id_blocks_1024::0           75                       # Occupied blocks per task id
system.cpu.dcache.tags.age_task_id_blocks_1024::1          333                       # Occupied blocks per task id
system.cpu.dcache.tags.age_task_id_blocks_1024::2           74                       # Occupied blocks per task id
system.cpu.dcache.tags.age_task_id_blocks_1024::3           30                       # Occupied blocks per task id
system.cpu.dcache.tags.occ_task_id_percent::1024            1                       # Percentage of cache occupancy per task id
system.cpu.dcache.tags.tag_accesses           7144711                       # Number of tag accesses
system.cpu.dcache.tags.data_accesses          7144711                       # Number of data accesses
system.cpu.dcache.tags.power_state.pwrStateResidencyTicks::UNDEFINED   5341503500                       # Cumulative time (in ticks) in various power states
system.cpu.decode.idleCycles                  1981868                       # Number of cycles decode is idle
system.cpu.decode.blockedCycles               5279767                       # Number of cycles decode is blocked
system.cpu.decode.runCycles                   2999631                       # Number of cycles decode is running
system.cpu.decode.unblockCycles                292761                       # Number of cycles decode is unblocking
system.cpu.decode.squashCycles                  43112                       # Number of cycles decode is squashing
system.cpu.decode.branchResolved               901066                       # Number of times decode resolved a  branch
system.cpu.decode.branchMispred                 11125                       # Number of times decode detected a branch misprediction
system.cpu.decode.decodedInsts               20996144                       # Number of instructions handled by decode
system.cpu.decode.squashedInsts                 60591                       # Number of squashed instructions handled by decode
system.cpu.dtb.rdAccesses                     2397080                       # TLB accesses on read requests
system.cpu.dtb.wrAccesses                     1648955                       # TLB accesses on write requests
system.cpu.dtb.rdMisses                           637                       # TLB misses on read requests
system.cpu.dtb.wrMisses                         18316                       # TLB misses on write requests
system.cpu.dtb.walker.power_state.pwrStateResidencyTicks::UNDEFINED   5341503500                       # Cumulative time (in ticks) in various power states
system.cpu.dtb_walker_cache.blocked_cycles::no_mshrs            0                       # number of cycles access was blocked
system.cpu.dtb_walker_cache.blocked_cycles::no_targets            0                       # number of cycles access was blocked
system.cpu.dtb_walker_cache.blocked::no_mshrs            0                       # number of cycles access was blocked
system.cpu.dtb_walker_cache.blocked::no_targets            0                       # number of cycles access was blocked
system.cpu.dtb_walker_cache.avg_blocked_cycles::no_mshrs          nan                       # average number of cycles each access was blocked
system.cpu.dtb_walker_cache.avg_blocked_cycles::no_targets          nan                       # average number of cycles each access was blocked
system.cpu.dtb_walker_cache.replacements            0                       # number of replacements
system.cpu.dtb_walker_cache.power_state.pwrStateResidencyTicks::UNDEFINED   5341503500                       # Cumulative time (in ticks) in various power states
system.cpu.dtb_walker_cache.tags.tagsinuse            0                       # Cycle average of tags in use
system.cpu.dtb_walker_cache.tags.total_refs            0                       # Total number of references to valid blocks.
system.cpu.dtb_walker_cache.tags.sampled_refs            0                       # Sample count of references to valid blocks.
system.cpu.dtb_walker_cache.tags.avg_refs          nan                       # Average number of references to valid blocks.
system.cpu.dtb_walker_cache.tags.warmup_cycle            0                       # Cycle when the warmup percentage was hit.
system.cpu.dtb_walker_cache.tags.tag_accesses            0                       # Number of tag accesses
system.cpu.dtb_walker_cache.tags.data_accesses            0                       # Number of data accesses
system.cpu.dtb_walker_cache.tags.power_state.pwrStateResidencyTicks::UNDEFINED   5341503500                       # Cumulative time (in ticks) in various power states
system.cpu.fetch.icacheStallCycles            2195696                       # Number of cycles fetch is stalled on an Icache miss
system.cpu.fetch.insts                       11444196                       # Number of instructions fetch has processed
system.cpu.fetch.branches                     2387479                       # Number of branches that fetch encountered
system.cpu.fetch.predictedBranches            1079226                       # Number of branches that fetch has predicted taken
system.cpu.fetch.cycles                       8344980                       # Number of cycles fetch has run and was not squashing or blocked
system.cpu.fetch.squashCycles                  108450                       # Number of cycles fetch has spent squashing
system.cpu.fetch.miscStallCycles                  252                       # Number of cycles fetch has spent waiting on interrupts,or bad addresses, or out of MSHRs
system.cpu.fetch.pendingTrapStallCycles          1958                       # Number of stall cycles due to pending traps
system.cpu.fetch.pendingQuiesceStallCycles            9                       # Number of stall cycles due to pending quiesce instructions
system.cpu.fetch.icacheWaitRetryStallCycles           19                       # Number of stall cycles due to full MSHR
system.cpu.fetch.cacheLines                   1739717                       # Number of cache lines fetched
system.cpu.fetch.icacheSquashes                 17618                       # Number of outstanding Icache misses that were squashed
system.cpu.fetch.nisnDist::samples           10597139                       # Number of instructions fetched each cycle (Total)
system.cpu.fetch.nisnDist::mean              2.043553                       # Number of instructions fetched each cycle (Total)
system.cpu.fetch.nisnDist::stdev             3.183033                       # Number of instructions fetched each cycle (Total)
system.cpu.fetch.nisnDist::underflows               0      0.00%      0.00% # Number of instructions fetched each cycle (Total)
system.cpu.fetch.nisnDist::0                  6981923     65.88%     65.88% # Number of instructions fetched each cycle (Total)
system.cpu.fetch.nisnDist::1                   164845      1.56%     67.44% # Number of instructions fetched each cycle (Total)
system.cpu.fetch.nisnDist::2                   395089      3.73%     71.17% # Number of instructions fetched each cycle (Total)
system.cpu.fetch.nisnDist::3                   305794      2.89%     74.05% # Number of instructions fetched each cycle (Total)
system.cpu.fetch.nisnDist::4                   205988      1.94%     76.00% # Number of instructions fetched each cycle (Total)
system.cpu.fetch.nisnDist::5                   226766      2.14%     78.14% # Number of instructions fetched each cycle (Total)
system.cpu.fetch.nisnDist::6                   256121      2.42%     80.56% # Number of instructions fetched each cycle (Total)
system.cpu.fetch.nisnDist::7                   196004      1.85%     82.40% # Number of instructions fetched each cycle (Total)
system.cpu.fetch.nisnDist::8                  1864609     17.60%    100.00% # Number of instructions fetched each cycle (Total)
system.cpu.fetch.nisnDist::overflows                0      0.00%    100.00% # Number of instructions fetched each cycle (Total)
system.cpu.fetch.nisnDist::min_value                0                       # Number of instructions fetched each cycle (Total)
system.cpu.fetch.nisnDist::max_value                8                       # Number of instructions fetched each cycle (Total)
system.cpu.fetch.nisnDist::total             10597139                       # Number of instructions fetched each cycle (Total)
system.cpu.fetch.branchRate                  0.223484                       # Number of branch fetches per cycle
system.cpu.fetch.rate                        1.071252                       # Number of inst fetches per cycle
system.cpu.icache.demand_hits::.cpu.inst      1722033                       # number of demand (read+write) hits
system.cpu.icache.demand_hits::total          1722033                       # number of demand (read+write) hits
system.cpu.icache.overall_hits::.cpu.inst      1722033                       # number of overall hits
system.cpu.icache.overall_hits::total         1722033                       # number of overall hits
system.cpu.icache.demand_misses::.cpu.inst        17684                       # number of demand (read+write) misses
system.cpu.icache.demand_misses::total          17684                       # number of demand (read+write) misses
system.cpu.icache.overall_misses::.cpu.inst        17684                       # number of overall misses
system.cpu.icache.overall_misses::total         17684                       # number of overall misses
system.cpu.icache.demand_miss_latency::.cpu.inst    328266000                       # number of demand (read+write) miss cycles
system.cpu.icache.demand_miss_latency::total    328266000                       # number of demand (read+write) miss cycles
system.cpu.icache.overall_miss_latency::.cpu.inst    328266000                       # number of overall miss cycles
system.cpu.icache.overall_miss_latency::total    328266000                       # number of overall miss cycles
system.cpu.icache.demand_accesses::.cpu.inst      1739717                       # number of demand (read+write) accesses
system.cpu.icache.demand_accesses::total      1739717                       # number of demand (read+write) accesses
system.cpu.icache.overall_accesses::.cpu.inst      1739717                       # number of overall (read+write) accesses
system.cpu.icache.overall_accesses::total      1739717                       # number of overall (read+write) accesses
system.cpu.icache.demand_miss_rate::.cpu.inst     0.010165                       # miss rate for demand accesses
system.cpu.icache.demand_miss_rate::total     0.010165                       # miss rate for demand accesses
system.cpu.icache.overall_miss_rate::.cpu.inst     0.010165                       # miss rate for overall accesses
system.cpu.icache.overall_miss_rate::total     0.010165                       # miss rate for overall accesses
system.cpu.icache.demand_avg_miss_latency::.cpu.inst 18562.881701                       # average overall miss latency
system.cpu.icache.demand_avg_miss_latency::total 18562.881701                       # average overall miss latency
system.cpu.icache.overall_avg_miss_latency::.cpu.inst 18562.881701                       # average overall miss latency
system.cpu.icache.overall_avg_miss_latency::total 18562.881701                       # average overall miss latency
system.cpu.icache.blocked_cycles::no_mshrs          283                       # number of cycles access was blocked
system.cpu.icache.blocked_cycles::no_targets            0                       # number of cycles access was blocked
system.cpu.icache.blocked::no_mshrs                 4                       # number of cycles access was blocked
system.cpu.icache.blocked::no_targets               0                       # number of cycles access was blocked
system.cpu.icache.avg_blocked_cycles::no_mshrs    70.750000                       # average number of cycles each access was blocked
system.cpu.icache.avg_blocked_cycles::no_targets          nan                       # average number of cycles each access was blocked
system.cpu.icache.writebacks::.writebacks        16721                       # number of writebacks
system.cpu.icache.writebacks::total             16721                       # number of writebacks
system.cpu.icache.demand_mshr_hits::.cpu.inst          453                       # number of demand (read+write) MSHR hits
system.cpu.icache.demand_mshr_hits::total          453                       # number of demand (read+write) MSHR hits
system.cpu.icache.overall_mshr_hits::.cpu.inst          453                       # number of overall MSHR hits
system.cpu.icache.overall_mshr_hits::total          453                       # number of overall MSHR hits
system.cpu.icache.demand_mshr_misses::.cpu.inst        17231                       # number of demand (read+write) MSHR misses
system.cpu.icache.demand_mshr_misses::total        17231                       # number of demand (read+write) MSHR misses
system.cpu.icache.overall_mshr_misses::.cpu.inst        17231                       # number of overall MSHR misses
system.cpu.icache.overall_mshr_misses::total        17231                       # number of overall MSHR misses
system.cpu.icache.demand_mshr_miss_latency::.cpu.inst    286387500                       # number of demand (read+write) MSHR miss cycles
system.cpu.icache.demand_mshr_miss_latency::total    286387500                       # number of demand (read+write) MSHR miss cycles
system.cpu.icache.overall_mshr_miss_latency::.cpu.inst    286387500                       # number of overall MSHR miss cycles
system.cpu.icache.overall_mshr_miss_latency::total    286387500                       # number of overall MSHR miss cycles
system.cpu.icache.demand_mshr_miss_rate::.cpu.inst     0.009904                       # mshr miss rate for demand accesses
system.cpu.icache.demand_mshr_miss_rate::total     0.009904                       # mshr miss rate for demand accesses
system.cpu.icache.overall_mshr_miss_rate::.cpu.inst     0.009904                       # mshr miss rate for overall accesses
system.cpu.icache.overall_mshr_miss_rate::total     0.009904                       # mshr miss rate for overall accesses
system.cpu.icache.demand_avg_mshr_miss_latency::.cpu.inst 16620.480529                       # average overall mshr miss latency
system.cpu.icache.demand_avg_mshr_miss_latency::total 16620.480529                       # average overall mshr miss latency
system.cpu.icache.overall_avg_mshr_miss_latency::.cpu.inst 16620.480529                       # average overall mshr miss latency
system.cpu.icache.overall_avg_mshr_miss_latency::total 16620.480529                       # average overall mshr miss latency
system.cpu.icache.replacements                  16721                       # number of replacements
system.cpu.icache.ReadReq_hits::.cpu.inst      1722033                       # number of ReadReq hits
system.cpu.icache.ReadReq_hits::total         1722033                       # number of ReadReq hits
system.cpu.icache.ReadReq_misses::.cpu.inst        17684                       # number of ReadReq misses
system.cpu.icache.ReadReq_misses::total         17684                       # number of ReadReq misses
system.cpu.icache.ReadReq_miss_latency::.cpu.inst    328266000                       # number of ReadReq miss cycles
system.cpu.icache.ReadReq_miss_latency::total    328266000                       # number of ReadReq miss cycles
system.cpu.icache.ReadReq_accesses::.cpu.inst      1739717                       # number of ReadReq accesses(hits+misses)
system.cpu.icache.ReadReq_accesses::total      1739717                       # number of ReadReq accesses(hits+misses)
system.cpu.icache.ReadReq_miss_rate::.cpu.inst     0.010165                       # miss rate for ReadReq accesses
system.cpu.icache.ReadReq_miss_rate::total     0.010165                       # miss rate for ReadReq accesses
system.cpu.icache.ReadReq_avg_miss_latency::.cpu.inst 18562.881701                       # average ReadReq miss latency
system.cpu.icache.ReadReq_avg_miss_latency::total 18562.881701                       # average ReadReq miss latency
system.cpu.icache.ReadReq_mshr_hits::.cpu.inst          453                       # number of ReadReq MSHR hits
system.cpu.icache.ReadReq_mshr_hits::total          453                       # number of ReadReq MSHR hits
system.cpu.icache.ReadReq_mshr_misses::.cpu.inst        17231                       # number of ReadReq MSHR misses
system.cpu.icache.ReadReq_mshr_misses::total        17231                       # number of ReadReq MSHR misses
system.cpu.icache.ReadReq_mshr_miss_latency::.cpu.inst    286387500                       # number of ReadReq MSHR miss cycles
system.cpu.icache.ReadReq_mshr_miss_latency::total    286387500                       # number of ReadReq MSHR miss cycles
system.cpu.icache.ReadReq_mshr_miss_rate::.cpu.inst     0.009904                       # mshr miss rate for ReadReq accesses
system.cpu.icache.ReadReq_mshr_miss_rate::total     0.009904                       # mshr miss rate for ReadReq accesses
system.cpu.icache.ReadReq_avg_mshr_miss_latency::.cpu.inst 16620.480529                       # average ReadReq mshr miss latency
system.cpu.icache.ReadReq_avg_mshr_miss_latency::total 16620.480529                       # average ReadReq mshr miss latency
system.cpu.icache.power_state.pwrStateResidencyTicks::UNDEFINED   5341503500                       # Cumulative time (in ticks) in various power states
system.cpu.icache.tags.tagsinuse           504.979790                       # Cycle average of tags in use
system.cpu.icache.tags.total_refs             1739264                       # Total number of references to valid blocks.
system.cpu.icache.tags.sampled_refs             17231                       # Sample count of references to valid blocks.
system.cpu.icache.tags.avg_refs            100.938077                       # Average number of references to valid blocks.
system.cpu.icache.tags.warmup_cycle             79500                       # Cycle when the warmup percentage was hit.
system.cpu.icache.tags.occ_blocks::.cpu.inst   504.979790                       # Average occupied blocks per requestor
system.cpu.icache.tags.occ_percent::.cpu.inst     0.986289                       # Average percentage of cache occupancy
system.cpu.icache.tags.occ_percent::total     0.986289                       # Average percentage of cache occupancy
system.cpu.icache.tags.occ_task_id_blocks::1024          508                       # Occupied blocks per task id
system.cpu.icache.tags.age_task_id_blocks_1024::0            2                       # Occupied blocks per task id
system.cpu.icache.tags.age_task_id_blocks_1024::2            1                       # Occupied blocks per task id
system.cpu.icache.tags.age_task_id_blocks_1024::3          505                       # Occupied blocks per task id
system.cpu.icache.tags.occ_task_id_percent::1024     0.992188                       # Percentage of cache occupancy per task id
system.cpu.icache.tags.tag_accesses           3496665                       # Number of tag accesses
system.cpu.icache.tags.data_accesses          3496665                       # Number of data accesses
system.cpu.icache.tags.power_state.pwrStateResidencyTicks::UNDEFINED   5341503500                       # Cumulative time (in ticks) in various power states
system.cpu.interrupts.clk_domain.clock           8000                       # Clock period in ticks
system.cpu.itb.rdAccesses                           0                       # TLB accesses on read requests
system.cpu.itb.wrAccesses                     1740009                       # TLB accesses on write requests
system.cpu.itb.rdMisses                             0                       # TLB misses on read requests
system.cpu.itb.wrMisses                           428                       # TLB misses on write requests
system.cpu.itb.walker.power_state.pwrStateResidencyTicks::UNDEFINED   5341503500                       # Cumulative time (in ticks) in various power states
system.cpu.itb_walker_cache.blocked_cycles::no_mshrs            0                       # number of cycles access was blocked
system.cpu.itb_walker_cache.blocked_cycles::no_targets            0                       # number of cycles access was blocked
system.cpu.itb_walker_cache.blocked::no_mshrs            0                       # number of cycles access was blocked
system.cpu.itb_walker_cache.blocked::no_targets            0                       # number of cycles access was blocked
system.cpu.itb_walker_cache.avg_blocked_cycles::no_mshrs          nan                       # average number of cycles each access was blocked
system.cpu.itb_walker_cache.avg_blocked_cycles::no_targets          nan                       # average number of cycles each access was blocked
system.cpu.itb_walker_cache.replacements            0                       # number of replacements
system.cpu.itb_walker_cache.power_state.pwrStateResidencyTicks::UNDEFINED   5341503500                       # Cumulative time (in ticks) in various power states
system.cpu.itb_walker_cache.tags.tagsinuse            0                       # Cycle average of tags in use
system.cpu.itb_walker_cache.tags.total_refs            0                       # Total number of references to valid blocks.
system.cpu.itb_walker_cache.tags.sampled_refs            0                       # Sample count of references to valid blocks.
system.cpu.itb_walker_cache.tags.avg_refs          nan                       # Average number of references to valid blocks.
system.cpu.itb_walker_cache.tags.warmup_cycle            0                       # Cycle when the warmup percentage was hit.
system.cpu.itb_walker_cache.tags.tag_accesses            0                       # Number of tag accesses
system.cpu.itb_walker_cache.tags.data_accesses            0                       # Number of data accesses
system.cpu.itb_walker_cache.tags.power_state.pwrStateResidencyTicks::UNDEFINED   5341503500                       # Cumulative time (in ticks) in various power states
system.cpu.lsq0.forwLoads                      457523                       # Number of loads that had data forwarded from stores
system.cpu.lsq0.squashedLoads                  201068                       # Number of loads squashed
system.cpu.lsq0.ignoredResponses                 5354                       # Number of memory responses ignored because the instruction is squashed
system.cpu.lsq0.memOrderViolation                 212                       # Number of memory ordering violations
system.cpu.lsq0.squashedStores                  72018                       # Number of stores squashed
system.cpu.lsq0.rescheduledLoads                 5258                       # Number of loads that were rescheduled
system.cpu.lsq0.blockedByCache                    285                       # Number of times an access to memory failed due to the cache being blocked
system.cpu.power_state.pwrStateResidencyTicks::ON   5341503500                       # Cumulative time (in ticks) in various power states
system.cpu.rename.squashCycles                  43112                       # Number of cycles rename is squashing
system.cpu.rename.idleCycles                  2139951                       # Number of cycles rename is idle
system.cpu.rename.blockCycles                 1700966                       # Number of cycles rename is blocking
system.cpu.rename.serializeStallCycles           2728                       # count of cycles rename stalledfor serializing inst
system.cpu.rename.runCycles                   3129089                       # Number of cycles rename is running
system.cpu.rename.unblockCycles               3581293                       # Number of cycles rename is unblocking
system.cpu.rename.renamedInsts               20803812                       # Number of instructions processed by rename
system.cpu.rename.ROBFullEvents                  9293                       # Number of times rename has blocked due to ROB full
system.cpu.rename.IQFullEvents                 129372                       # Number of times rename has blocked due to IQ full
system.cpu.rename.LQFullEvents                   1416                       # Number of times rename has blocked due to LQ full
system.cpu.rename.SQFullEvents                3402548                       # Number of times rename has blocked due to SQ full
system.cpu.rename.fullRegistersEvents               6                       # Number of times there has been no free registers
system.cpu.rename.renamedOperands            23153856                       # Number of destination operands rename has renamed
system.cpu.rename.lookups                    54591431                       # Number of register rename lookups that rename has made
system.cpu.rename.intLookups                 32220063                       # Number of integer rename lookups
system.cpu.rename.fpLookups                    747927                       # Number of floating rename lookups
system.cpu.rename.committedMaps              20863668                       # Number of HB maps that are committed
system.cpu.rename.undoneMaps                  2290150                       # Number of HB maps that are undone due to squashing
system.cpu.rename.serializing                      37                       # count of serializing insts renamed
system.cpu.rename.tempSerializing                  22                       # count of temporary serializing insts renamed
system.cpu.rename.skidInsts                   1704990                       # count of insts added to the skid buffer
system.cpu.rob.reads                         29831841                       # The number of ROB reads
system.cpu.rob.writes                        41069377                       # The number of ROB writes
system.cpu.thread_0.numInsts                 10000001                       # Number of Instructions committed
system.cpu.thread_0.numOps                   18847133                       # Number of Ops committed
system.cpu.thread_0.numMemRefs                      0                       # Number of Memory References
system.cpu_clk_domain.clock                       500                       # Clock period in ticks
system.cpu_voltage_domain.voltage                   1                       # Voltage in Volts
system.l2.demand_hits::.cpu.inst                15889                       # number of demand (read+write) hits
system.l2.demand_hits::.cpu.data                 7141                       # number of demand (read+write) hits
system.l2.demand_hits::total                    23030                       # number of demand (read+write) hits
system.l2.overall_hits::.cpu.inst               15889                       # number of overall hits
system.l2.overall_hits::.cpu.data                7141                       # number of overall hits
system.l2.overall_hits::total                   23030                       # number of overall hits
system.l2.demand_misses::.cpu.inst               1340                       # number of demand (read+write) misses
system.l2.demand_misses::.cpu.data              37654                       # number of demand (read+write) misses
system.l2.demand_misses::total                  38994                       # number of demand (read+write) misses
system.l2.overall_misses::.cpu.inst              1340                       # number of overall misses
system.l2.overall_misses::.cpu.data             37654                       # number of overall misses
system.l2.overall_misses::total                 38994                       # number of overall misses
system.l2.demand_miss_latency::.cpu.inst     93486500                       # number of demand (read+write) miss cycles
system.l2.demand_miss_latency::.cpu.data   2993900500                       # number of demand (read+write) miss cycles
system.l2.demand_miss_latency::total       3087387000                       # number of demand (read+write) miss cycles
system.l2.overall_miss_latency::.cpu.inst     93486500                       # number of overall miss cycles
system.l2.overall_miss_latency::.cpu.data   2993900500                       # number of overall miss cycles
system.l2.overall_miss_latency::total      3087387000                       # number of overall miss cycles
system.l2.demand_accesses::.cpu.inst            17229                       # number of demand (read+write) accesses
system.l2.demand_accesses::.cpu.data            44795                       # number of demand (read+write) accesses
system.l2.demand_accesses::total                62024                       # number of demand (read+write) accesses
system.l2.overall_accesses::.cpu.inst           17229                       # number of overall (read+write) accesses
system.l2.overall_accesses::.cpu.data           44795                       # number of overall (read+write) accesses
system.l2.overall_accesses::total               62024                       # number of overall (read+write) accesses
system.l2.demand_miss_rate::.cpu.inst        0.077776                       # miss rate for demand accesses
system.l2.demand_miss_rate::.cpu.data        0.840585                       # miss rate for demand accesses
system.l2.demand_miss_rate::total            0.628692                       # miss rate for demand accesses
system.l2.overall_miss_rate::.cpu.inst       0.077776                       # miss rate for overall accesses
system.l2.overall_miss_rate::.cpu.data       0.840585                       # miss rate for overall accesses
system.l2.overall_miss_rate::total           0.628692                       # miss rate for overall accesses
system.l2.demand_avg_miss_latency::.cpu.inst 69766.044776                       # average overall miss latency
system.l2.demand_avg_miss_latency::.cpu.data 79510.822223                       # average overall miss latency
system.l2.demand_avg_miss_latency::total 79175.950146                       # average overall miss latency
system.l2.overall_avg_miss_latency::.cpu.inst 69766.044776                       # average overall miss latency
[...]
system.mem_ctrls.dram.readBursts                38994                       # Number of DRAM read bursts
system.mem_ctrls.dram.writeBursts               27370                       # Number of DRAM write bursts
system.mem_ctrls.dram.perBankRdBursts::0         2329                       # Per bank write bursts
system.mem_ctrls.dram.perBankRdBursts::1         2383                       # Per bank write bursts
system.mem_ctrls.dram.perBankRdBursts::2         2544                       # Per bank write bursts
system.mem_ctrls.dram.perBankRdBursts::3         2365                       # Per bank write bursts
system.mem_ctrls.dram.perBankRdBursts::4         2516                       # Per bank write bursts
system.mem_ctrls.dram.perBankRdBursts::5         2597                       # Per bank write bursts
system.mem_ctrls.dram.perBankRdBursts::6         2335                       # Per bank write bursts
system.mem_ctrls.dram.perBankRdBursts::7         2503                       # Per bank write bursts
system.mem_ctrls.dram.perBankRdBursts::8         2444                       # Per bank write bursts
system.mem_ctrls.dram.perBankRdBursts::9         2397                       # Per bank write bursts
system.mem_ctrls.dram.perBankRdBursts::10         2351                       # Per bank write bursts
system.mem_ctrls.dram.perBankRdBursts::11         2375                       # Per bank write bursts
system.mem_ctrls.dram.perBankRdBursts::12         2582                       # Per bank write bursts
system.mem_ctrls.dram.perBankRdBursts::13         2441                       # Per bank write bursts
system.mem_ctrls.dram.perBankRdBursts::14         2448                       # Per bank write bursts
system.mem_ctrls.dram.perBankRdBursts::15         2384                       # Per bank write bursts
system.mem_ctrls.dram.perBankWrBursts::0         1610                       # Per bank write bursts
system.mem_ctrls.dram.perBankWrBursts::1         1588                       # Per bank write bursts
system.mem_ctrls.dram.perBankWrBursts::2         1830                       # Per bank write bursts
system.mem_ctrls.dram.perBankWrBursts::3         1717                       # Per bank write bursts
system.mem_ctrls.dram.perBankWrBursts::4         1763                       # Per bank write bursts
system.mem_ctrls.dram.perBankWrBursts::5         1732                       # Per bank write bursts
system.mem_ctrls.dram.perBankWrBursts::6         1659                       # Per bank write bursts
system.mem_ctrls.dram.perBankWrBursts::7         1792                       # Per bank write bursts
system.mem_ctrls.dram.perBankWrBursts::8         1769                       # Per bank write bursts
system.mem_ctrls.dram.perBankWrBursts::9         1718                       # Per bank write bursts
system.mem_ctrls.dram.perBankWrBursts::10         1681                       # Per bank write bursts
system.mem_ctrls.dram.perBankWrBursts::11         1652                       # Per bank write bursts
system.mem_ctrls.dram.perBankWrBursts::12         1784                       # Per bank write bursts
system.mem_ctrls.dram.perBankWrBursts::13         1714                       # Per bank write bursts
system.mem_ctrls.dram.perBankWrBursts::14         1660                       # Per bank write bursts
system.mem_ctrls.dram.perBankWrBursts::15         1701                       # Per bank write bursts
system.mem_ctrls.dram.totQLat               672232000                       # Total ticks spent queuing
system.mem_ctrls.dram.totBusLat             194970000                       # Total ticks spent in databus transfers
system.mem_ctrls.dram.totMemAccLat         1403369500                       # Total ticks spent from burst creation until serviced by the DRAM
system.mem_ctrls.dram.avgQLat                17239.37                       # Average queueing delay per DRAM burst
system.mem_ctrls.dram.avgBusLat               5000.00                       # Average bus latency per DRAM burst
system.mem_ctrls.dram.avgMemAccLat           35989.37                       # Average memory access latency per DRAM burst
system.mem_ctrls.dram.readRowHits               19143                       # Number of row buffer hits during reads
system.mem_ctrls.dram.writeRowHits              14600                       # Number of row buffer hits during writes
system.mem_ctrls.dram.readRowHitRate            49.09                       # Row buffer hit rate for reads
system.mem_ctrls.dram.writeRowHitRate           53.34                       # Row buffer hit rate for writes
system.mem_ctrls.dram.bytesPerActivate::samples        32621                       # Bytes accessed per row activation
system.mem_ctrls.dram.bytesPerActivate::mean   130.201281                       # Bytes accessed per row activation
system.mem_ctrls.dram.bytesPerActivate::gmean    96.565543                       # Bytes accessed per row activation
system.mem_ctrls.dram.bytesPerActivate::stdev   144.204189                       # Bytes accessed per row activation
system.mem_ctrls.dram.bytesPerActivate::0-127        21306     65.31%     65.31% # Bytes accessed per row activation
system.mem_ctrls.dram.bytesPerActivate::128-255         7158     21.94%     87.26% # Bytes accessed per row activation
system.mem_ctrls.dram.bytesPerActivate::256-383         1814      5.56%     92.82% # Bytes accessed per row activation
system.mem_ctrls.dram.bytesPerActivate::384-511          967      2.96%     95.78% # Bytes accessed per row activation
system.mem_ctrls.dram.bytesPerActivate::512-639          686      2.10%     97.88% # Bytes accessed per row activation
system.mem_ctrls.dram.bytesPerActivate::640-767          283      0.87%     98.75% # Bytes accessed per row activation
system.mem_ctrls.dram.bytesPerActivate::768-895          159      0.49%     99.24% # Bytes accessed per row activation
system.mem_ctrls.dram.bytesPerActivate::896-1023           67      0.21%     99.45% # Bytes accessed per row activation
system.mem_ctrls.dram.bytesPerActivate::1024-1151          181      0.55%    100.00% # Bytes accessed per row activation
system.mem_ctrls.dram.bytesPerActivate::total        32621                       # Bytes accessed per row activation
system.mem_ctrls.dram.bytesRead               2495616                       # Total number of bytes read from DRAM
system.mem_ctrls.dram.bytesWritten            1751680                       # Total number of bytes written to DRAM
system.mem_ctrls.dram.avgRdBW              467.212275                       # Average DRAM read bandwidth in MiBytes/s
system.mem_ctrls.dram.avgWrBW              327.937630                       # Average DRAM write bandwidth in MiBytes/s
system.mem_ctrls.dram.peakBW                 12800.00                       # Theoretical peak bandwidth in MiByte/s
system.mem_ctrls.dram.busUtil                    6.21                       # Data bus utilization in percentage
system.mem_ctrls.dram.busUtilRead                3.65                       # Data bus utilization in percentage for reads
system.mem_ctrls.dram.busUtilWrite               2.56                       # Data bus utilization in percentage for writes
system.mem_ctrls.dram.pageHitRate               50.85                       # Row buffer hit rate, read and write combined
system.mem_ctrls.dram.power_state.pwrStateResidencyTicks::UNDEFINED   5341503500                       # Cumulative time (in ticks) in various power states
system.mem_ctrls.dram.rank0.actEnergy       117395880                       # Energy for activate commands per rank (pJ)
system.mem_ctrls.dram.rank0.preEnergy        62397390                       # Energy for precharge commands per rank (pJ)
system.mem_ctrls.dram.rank0.readEnergy      139744080                       # Energy for read commands per rank (pJ)
system.mem_ctrls.dram.rank0.writeEnergy      71467020                       # Energy for write commands per rank (pJ)
system.mem_ctrls.dram.rank0.refreshEnergy 421643040.000000                       # Energy for refresh commands per rank (pJ)
system.mem_ctrls.dram.rank0.actBackEnergy   2362874010                       # Energy for active background per rank (pJ)
system.mem_ctrls.dram.rank0.preBackEnergy     61396320                       # Energy for precharge background per rank (pJ)
system.mem_ctrls.dram.rank0.actPowerDownEnergy            0                       # Energy for active power-down per rank (pJ)
system.mem_ctrls.dram.rank0.prePowerDownEnergy            0                       # Energy for precharge power-down per rank (pJ)
system.mem_ctrls.dram.rank0.selfRefreshEnergy            0                       # Energy for self refresh per rank (pJ)
system.mem_ctrls.dram.rank0.totalEnergy    3236917740                       # Total energy per rank (pJ)
system.mem_ctrls.dram.rank0.averagePower   605.993751                       # Core power per rank (mW)
system.mem_ctrls.dram.rank0.totalIdleTime            0                       # Total Idle time Per DRAM Rank
system.mem_ctrls.dram.rank0.pwrStateTime::IDLE    139913500                       # Time in different power states
system.mem_ctrls.dram.rank0.pwrStateTime::REF    178222250                       # Time in different power states
system.mem_ctrls.dram.rank0.pwrStateTime::SREF            0                       # Time in different power states
system.mem_ctrls.dram.rank0.pwrStateTime::PRE_PDN            0                       # Time in different power states
system.mem_ctrls.dram.rank0.pwrStateTime::ACT   5023367750                       # Time in different power states
system.mem_ctrls.dram.rank0.pwrStateTime::ACT_PDN            0                       # Time in different power states
system.mem_ctrls.dram.rank1.actEnergy       115518060                       # Energy for activate commands per rank (pJ)
system.mem_ctrls.dram.rank1.preEnergy        61399305                       # Energy for precharge commands per rank (pJ)
system.mem_ctrls.dram.rank1.readEnergy      138673080                       # Energy for read commands per rank (pJ)
system.mem_ctrls.dram.rank1.writeEnergy      71404380                       # Energy for write commands per rank (pJ)
system.mem_ctrls.dram.rank1.refreshEnergy 421643040.000000                       # Energy for refresh commands per rank (pJ)
system.mem_ctrls.dram.rank1.actBackEnergy   2359493910                       # Energy for active background per rank (pJ)
system.mem_ctrls.dram.rank1.preBackEnergy     64242720                       # Energy for precharge background per rank (pJ)
system.mem_ctrls.dram.rank1.actPowerDownEnergy            0                       # Energy for active power-down per rank (pJ)
system.mem_ctrls.dram.rank1.prePowerDownEnergy            0                       # Energy for precharge power-down per rank (pJ)
system.mem_ctrls.dram.rank1.selfRefreshEnergy            0                       # Energy for self refresh per rank (pJ)
system.mem_ctrls.dram.rank1.totalEnergy    3232374495                       # Total energy per rank (pJ)
system.mem_ctrls.dram.rank1.averagePower   605.143195                       # Core power per rank (mW)
system.mem_ctrls.dram.rank1.totalIdleTime            0                       # Total Idle time Per DRAM Rank
system.mem_ctrls.dram.rank1.pwrStateTime::IDLE    147194250                       # Time in different power states
system.mem_ctrls.dram.rank1.pwrStateTime::REF    178222250                       # Time in different power states
system.mem_ctrls.dram.rank1.pwrStateTime::SREF            0                       # Time in different power states
system.mem_ctrls.dram.rank1.pwrStateTime::PRE_PDN            0                       # Time in different power states
system.mem_ctrls.dram.rank1.pwrStateTime::ACT   5016087000                       # Time in different power states
system.mem_ctrls.dram.rank1.pwrStateTime::ACT_PDN            0                       # Time in different power states
system.mem_ctrls.power_state.pwrStateResidencyTicks::UNDEFINED   5341503500                       # Cumulative time (in ticks) in various power states
system.membus.trans_dist::ReadResp              10220                       # Transaction distribution
system.membus.trans_dist::WritebackDirty        27395                       # Transaction distribution
system.membus.trans_dist::CleanEvict             2873                       # Transaction distribution
system.membus.trans_dist::ReadExReq             28774                       # Transaction distribution
system.membus.trans_dist::ReadExResp            28774                       # Transaction distribution
system.membus.trans_dist::ReadSharedReq         10220                       # Transaction distribution
system.membus.pkt_count_system.l2.mem_side_port::system.mem_ctrls.port       108256                       # Packet count per connected requestor and responder (bytes)
system.membus.pkt_count_system.l2.mem_side_port::total       108256                       # Packet count per connected requestor and responder (bytes)
system.membus.pkt_count::total                 108256                       # Packet count per connected requestor and responder (bytes)
system.membus.pkt_size_system.l2.mem_side_port::system.mem_ctrls.port      4248896                       # Cumulative packet size per connected requestor and responder (bytes)
system.membus.pkt_size_system.l2.mem_side_port::total      4248896                       # Cumulative packet size per connected requestor and responder (bytes)
system.membus.pkt_size::total                 4248896                       # Cumulative packet size per connected requestor and responder (bytes)
system.membus.snoops                                0                       # Total snoops (count)
system.membus.snoopTraffic                          0                       # Total snoop traffic (bytes)
system.membus.snoop_fanout::samples             38994                       # Request fanout histogram
system.membus.snoop_fanout::mean                    0                       # Request fanout histogram
system.membus.snoop_fanout::stdev                   0                       # Request fanout histogram
system.membus.snoop_fanout::underflows              0      0.00%      0.00% # Request fanout histogram
system.membus.snoop_fanout::0                   38994    100.00%    100.00% # Request fanout histogram
system.membus.snoop_fanout::1                       0      0.00%    100.00% # Request fanout histogram
system.membus.snoop_fanout::overflows               0      0.00%    100.00% # Request fanout histogram
system.membus.snoop_fanout::min_value               0                       # Request fanout histogram
system.membus.snoop_fanout::max_value               0                       # Request fanout histogram
system.membus.snoop_fanout::total               38994                       # Request fanout histogram
system.membus.power_state.pwrStateResidencyTicks::UNDEFINED   5341503500                       # Cumulative time (in ticks) in various power states
system.membus.reqLayer2.occupancy            44710500                       # Layer occupancy (ticks)
system.membus.reqLayer2.utilization               0.8                       # Layer utilization (%)
system.membus.respLayer1.occupancy           48742500                       # Layer occupancy (ticks)
system.membus.respLayer1.utilization              0.9                       # Layer utilization (%)
system.tol2bus.trans_dist::ReadResp             29527                       # Transaction distribution
system.tol2bus.trans_dist::WritebackDirty        67938                       # Transaction distribution
system.tol2bus.trans_dist::WritebackClean        16721                       # Transaction distribution
system.tol2bus.trans_dist::CleanEvict            7192                       # Transaction distribution
system.tol2bus.trans_dist::UpgradeReq               2                       # Transaction distribution
system.tol2bus.trans_dist::UpgradeResp              2                       # Transaction distribution
system.tol2bus.trans_dist::ReadExReq            32499                       # Transaction distribution
system.tol2bus.trans_dist::ReadExResp           32499                       # Transaction distribution
system.tol2bus.trans_dist::ReadCleanReq         17231                       # Transaction distribution
system.tol2bus.trans_dist::ReadSharedReq        12296                       # Transaction distribution
system.tol2bus.pkt_count_system.cpu.icache.mem_side_port::system.l2.cpu_side_port        51181                       # Packet count per connected requestor and responder (bytes)
system.tol2bus.pkt_count_system.cpu.dcache.mem_side_port::system.l2.cpu_side_port       133877                       # Packet count per connected requestor and responder (bytes)
system.tol2bus.pkt_count::total                185058                       # Packet count per connected requestor and responder (bytes)
system.tol2bus.pkt_size_system.cpu.icache.mem_side_port::system.l2.cpu_side_port      2172800                       # Cumulative packet size per connected requestor and responder (bytes)
system.tol2bus.pkt_size_system.cpu.dcache.mem_side_port::system.l2.cpu_side_port      5461632                       # Cumulative packet size per connected requestor and responder (bytes)
system.tol2bus.pkt_size::total                7634432                       # Cumulative packet size per connected requestor and responder (bytes)
system.tol2bus.snoops                           30849                       # Total snoops (count)
system.tol2bus.snoopTraffic                   1753408                       # Total snoop traffic (bytes)
system.tol2bus.snoop_fanout::samples            92875                       # Request fanout histogram
system.tol2bus.snoop_fanout::mean            0.006450                       # Request fanout histogram
system.tol2bus.snoop_fanout::stdev           0.080319                       # Request fanout histogram
system.tol2bus.snoop_fanout::underflows             0      0.00%      0.00% # Request fanout histogram
system.tol2bus.snoop_fanout::0                  92278     99.36%     99.36% # Request fanout histogram
system.tol2bus.snoop_fanout::1                    595      0.64%    100.00% # Request fanout histogram
system.tol2bus.snoop_fanout::2                      2      0.00%    100.00% # Request fanout histogram
system.tol2bus.snoop_fanout::3                      0      0.00%    100.00% # Request fanout histogram
system.tol2bus.snoop_fanout::4                      0      0.00%    100.00% # Request fanout histogram
system.tol2bus.snoop_fanout::overflows              0      0.00%    100.00% # Request fanout histogram
system.tol2bus.snoop_fanout::min_value              0                       # Request fanout histogram
system.tol2bus.snoop_fanout::max_value              2                       # Request fanout histogram
system.tol2bus.snoop_fanout::total              92875                       # Request fanout histogram
system.tol2bus.power_state.pwrStateResidencyTicks::UNDEFINED   5341503500                       # Cumulative time (in ticks) in various power states
system.tol2bus.reqLayer0.occupancy          118780000                       # Layer occupancy (ticks)
system.tol2bus.reqLayer0.utilization              2.2                       # Layer utilization (%)
system.tol2bus.respLayer0.occupancy          25846999                       # Layer occupancy (ticks)
system.tol2bus.respLayer0.utilization             0.5                       # Layer utilization (%)
system.tol2bus.respLayer1.occupancy          67193500                       # Layer occupancy (ticks)
system.tol2bus.respLayer1.utilization             1.3                       # Layer utilization (%)
system.voltage_domain.voltage                       1                       # Voltage in Volts

---------- End Simulation Statistics   ----------
