Global frequency set at 1000000000000 ticks per second
Redirecting stdout to /data/home/rwa116/Project/CMPT750-Proj-Benchmark/results/100M/X86/spec2017/641.leela_s/DerivO3CPU/4K_PerceptronBP_ghs-34_pts-240_wgh-4/simout
Redirecting stderr to /data/home/rwa116/Project/CMPT750-Proj-Benchmark/results/100M/X86/spec2017/641.leela_s/DerivO3CPU/4K_PerceptronBP_ghs-34_pts-240_wgh-4/simerr
gem5 Simulator System.  http://gem5.org
gem5 is copyrighted software; use the --copyright option for details.

gem5 version 20.1.0.2
gem5 compiled Nov 22 2023 19:06:59
gem5 started Nov 25 2023 22:20:49
gem5 executing on ARCH-750, pid 1561794
command line: /data/home/rwa116/Project/CMPT750-Proj/build/X86/gem5.opt -re --outdir=/data/home/rwa116/Project/CMPT750-Proj-Benchmark/results/100M/X86/spec2017/641.leela_s/DerivO3CPU/4K_PerceptronBP_ghs-34_pts-240_wgh-4 /data/home/rwa116/Project/CMPT750-Proj/configs/example/se.py --cpu-type=DerivO3CPU --caches --l2cache --l1d_size=32kB --l1i_size=32kB --l2_size=512kB --bp-type=PerceptronBP '--param=system.cpu[:].branchPred.globalHistorySize=34' '--param=system.cpu[:].branchPred.perceptronTableSize=240' '--param=system.cpu[:].branchPred.maxWeight=7' '--param=system.cpu[:].branchPred.minWeight=-8' '--param=system.cpu[:].branchPred.threshold=39' --cmd=/data/home/rwa116/Project/spec/benchspec/CPU/641.leela_s/build/build_base_mytest-m64.0000/leela_s '--options=ref.sgf > ref.out 2>> ref.err' --sys-clock=4GHz --warmup-insts=1000000 --maxinsts=100000000

info: Standard input is not a terminal, disabling listeners.
**** REAL SIMULATION ****
Exiting @ tick 32779748000 because a thread reached the max instruction count
