Global frequency set at 1000000000000 ticks per second
Redirecting stdout to /data/home/jiatangz/CMPT750-Proj-Benchmark/results/X86/spec2017/641.leela_s/DerivO3CPU/LTAGE/simout
Redirecting stderr to /data/home/jiatangz/CMPT750-Proj-Benchmark/results/X86/spec2017/641.leela_s/DerivO3CPU/LTAGE/simerr
gem5 Simulator System.  http://gem5.org
gem5 is copyrighted software; use the --copyright option for details.

gem5 version 20.1.0.2
gem5 compiled Nov 22 2023 18:04:46
gem5 started Nov 22 2023 18:20:16
gem5 executing on ARCH-750, pid 1471293
command line: /data/home/jiatangz/CMPT750-Proj/build/X86/gem5.opt -re --outdir=/data/home/jiatangz/CMPT750-Proj-Benchmark/results/X86/spec2017/641.leela_s/DerivO3CPU/LTAGE /data/home/jiatangz/CMPT750-Proj/configs/example/se.py --cpu-type=DerivO3CPU --caches --l2cache --l1d_size=32kB --l1i_size=32kB --l2_size=512kB --bp-type=LTAGE --cmd=/data/home/jiatangz/spec2017/benchspec/CPU/641.leela_s/build/build_base_mytest-m64.0000/leela_s '--options=ref.sgf > ref.out 2>> ref.err' --sys-clock=4GHz --warmup-insts=1000000 --maxinsts=10000000

info: Standard input is not a terminal, disabling listeners.
**** REAL SIMULATION ****
Exiting @ tick 6165188500 because a thread reached the max instruction count
