
---------- Begin Simulation Statistics ----------
final_tick                                 6165188500                       # Number of ticks from beginning of simulation (restored from checkpoints and never reset)
host_inst_rate                                  71132                       # Simulator instruction rate (inst/s)
host_mem_usage                                 726468                       # Number of bytes of host memory used
host_op_rate                                   113930                       # Simulator op (including micro ops) rate (op/s)
host_seconds                                   140.58                       # Real time elapsed on the host
host_tick_rate                               43854330                       # Simulator tick rate (ticks/s)
sim_freq                                 1000000000000                       # Frequency of simulated ticks
sim_insts                                    10000004                       # Number of instructions simulated
sim_ops                                      16016672                       # Number of ops (including micro ops) simulated
sim_seconds                                  0.006165                       # Number of seconds simulated
sim_ticks                                  6165188500                       # Number of ticks simulated
system.cpu.cc_regfile_reads                   9128739                       # number of cc regfile reads
system.cpu.cc_regfile_writes                  8510708                       # number of cc regfile writes
system.cpu.committedInsts                    10000004                       # Number of Instructions Simulated
system.cpu.committedOps                      16016672                       # Number of Ops (including micro ops) Simulated
system.cpu.cpi                               1.233037                       # CPI: Cycles Per Instruction
system.cpu.cpi_total                         1.233037                       # CPI: Total CPI of All Threads
system.cpu.fp_regfile_reads                    984583                       # number of floating regfile reads
system.cpu.fp_regfile_writes                   519970                       # number of floating regfile writes
system.cpu.idleCycles                          133565                       # Total number of cycles that the CPU has spent unscheduled due to idling
system.cpu.iew.branchMispredicts                54687                       # Number of branch mispredicts detected at execute
system.cpu.iew.exec_branches                  1341844                       # Number of branches executed
system.cpu.iew.exec_nop                             0                       # number of nop insts executed
system.cpu.iew.exec_rate                     1.447993                       # Inst execution rate
system.cpu.iew.exec_refs                      4502095                       # number of memory reference insts executed
system.cpu.iew.exec_stores                    1548732                       # Number of stores executed
system.cpu.iew.exec_swp                             0                       # number of swp insts executed
system.cpu.iew.iewBlockCycles                 1064385                       # Number of cycles IEW is blocking
system.cpu.iew.iewDispLoadInsts               3164878                       # Number of dispatched load instructions
system.cpu.iew.iewDispNonSpecInsts                908                       # Number of dispatched non-speculative instructions
system.cpu.iew.iewDispSquashedInsts              2083                       # Number of squashed instructions skipped by dispatch
system.cpu.iew.iewDispStoreInsts              1585483                       # Number of dispatched store instructions
system.cpu.iew.iewDispatchedInsts            19117157                       # Number of instructions dispatched to IQ
system.cpu.iew.iewExecLoadInsts               2953363                       # Number of load instructions executed
system.cpu.iew.iewExecSquashedInsts            113318                       # Number of squashed instructions skipped in execute
system.cpu.iew.iewExecutedInsts              17854305                       # Number of executed instructions
system.cpu.iew.iewIQFullEvents                  10041                       # Number of times the IQ has become full, causing a stall
system.cpu.iew.iewIdleCycles                        0                       # Number of cycles IEW is idle
system.cpu.iew.iewLSQFullEvents               2321760                       # Number of times the LSQ has become full, causing a stall
system.cpu.iew.iewSquashCycles                  49663                       # Number of cycles IEW is squashing
system.cpu.iew.iewUnblockCycles               2335611                       # Number of cycles IEW is unblocking
system.cpu.iew.memOrderViolationEvents            292                       # Number of memory order violations
system.cpu.iew.predictedNotTakenIncorrect        28733                       # Number of branches that were predicted not taken incorrectly
system.cpu.iew.predictedTakenIncorrect          25954                       # Number of branches that were predicted taken incorrectly
system.cpu.iew.wb_consumers                  23766110                       # num instructions consuming a value
system.cpu.iew.wb_count                      17748533                       # cumulative count of insts written-back
system.cpu.iew.wb_fanout                     0.557559                       # average fanout of values written-back
system.cpu.iew.wb_producers                  13250999                       # num instructions producing a value
system.cpu.iew.wb_rate                       1.439415                       # insts written-back per cycle
system.cpu.iew.wb_sent                       17798119                       # cumulative count of insts sent to commit
system.cpu.int_regfile_reads                 29446293                       # number of integer regfile reads
system.cpu.int_regfile_writes                14278560                       # number of integer regfile writes
system.cpu.ipc                               0.811005                       # IPC: Instructions Per Cycle
system.cpu.ipc_total                         0.811005                       # IPC: Total IPC of All Threads
system.cpu.iq.FU_type_0::No_OpClass            207623      1.16%      1.16% # Type of FU issued
system.cpu.iq.FU_type_0::IntAlu              12723870     70.82%     71.97% # Type of FU issued
system.cpu.iq.FU_type_0::IntMult                   47      0.00%     71.97% # Type of FU issued
system.cpu.iq.FU_type_0::IntDiv                 43923      0.24%     72.22% # Type of FU issued
system.cpu.iq.FU_type_0::FloatAdd              131123      0.73%     72.95% # Type of FU issued
system.cpu.iq.FU_type_0::FloatCmp                   0      0.00%     72.95% # Type of FU issued
system.cpu.iq.FU_type_0::FloatCvt                1421      0.01%     72.95% # Type of FU issued
system.cpu.iq.FU_type_0::FloatMult                  0      0.00%     72.95% # Type of FU issued
system.cpu.iq.FU_type_0::FloatMultAcc               0      0.00%     72.95% # Type of FU issued
system.cpu.iq.FU_type_0::FloatDiv                   0      0.00%     72.95% # Type of FU issued
system.cpu.iq.FU_type_0::FloatMisc                  0      0.00%     72.95% # Type of FU issued
system.cpu.iq.FU_type_0::FloatSqrt                  0      0.00%     72.95% # Type of FU issued
system.cpu.iq.FU_type_0::SimdAdd                 9207      0.05%     73.00% # Type of FU issued
system.cpu.iq.FU_type_0::SimdAddAcc                 0      0.00%     73.00% # Type of FU issued
system.cpu.iq.FU_type_0::SimdAlu                30824      0.17%     73.18% # Type of FU issued
system.cpu.iq.FU_type_0::SimdCmp                    6      0.00%     73.18% # Type of FU issued
system.cpu.iq.FU_type_0::SimdCvt                20390      0.11%     73.29% # Type of FU issued
system.cpu.iq.FU_type_0::SimdMisc              256393      1.43%     74.72% # Type of FU issued
system.cpu.iq.FU_type_0::SimdMult                   0      0.00%     74.72% # Type of FU issued
system.cpu.iq.FU_type_0::SimdMultAcc                0      0.00%     74.72% # Type of FU issued
system.cpu.iq.FU_type_0::SimdShift               4674      0.03%     74.74% # Type of FU issued
system.cpu.iq.FU_type_0::SimdShiftAcc               0      0.00%     74.74% # Type of FU issued
system.cpu.iq.FU_type_0::SimdDiv                    0      0.00%     74.74% # Type of FU issued
system.cpu.iq.FU_type_0::SimdSqrt                   0      0.00%     74.74% # Type of FU issued
system.cpu.iq.FU_type_0::SimdFloatAdd               0      0.00%     74.74% # Type of FU issued
system.cpu.iq.FU_type_0::SimdFloatAlu               0      0.00%     74.74% # Type of FU issued
system.cpu.iq.FU_type_0::SimdFloatCmp               0      0.00%     74.74% # Type of FU issued
system.cpu.iq.FU_type_0::SimdFloatCvt            6632      0.04%     74.78% # Type of FU issued
system.cpu.iq.FU_type_0::SimdFloatDiv               0      0.00%     74.78% # Type of FU issued
system.cpu.iq.FU_type_0::SimdFloatMisc              0      0.00%     74.78% # Type of FU issued
system.cpu.iq.FU_type_0::SimdFloatMult           3620      0.02%     74.80% # Type of FU issued
system.cpu.iq.FU_type_0::SimdFloatMultAcc            0      0.00%     74.80% # Type of FU issued
system.cpu.iq.FU_type_0::SimdFloatSqrt              0      0.00%     74.80% # Type of FU issued
system.cpu.iq.FU_type_0::SimdReduceAdd              0      0.00%     74.80% # Type of FU issued
system.cpu.iq.FU_type_0::SimdReduceAlu              0      0.00%     74.80% # Type of FU issued
system.cpu.iq.FU_type_0::SimdReduceCmp              0      0.00%     74.80% # Type of FU issued
system.cpu.iq.FU_type_0::SimdFloatReduceAdd            0      0.00%     74.80% # Type of FU issued
system.cpu.iq.FU_type_0::SimdFloatReduceCmp            0      0.00%     74.80% # Type of FU issued
system.cpu.iq.FU_type_0::SimdAes                    0      0.00%     74.80% # Type of FU issued
system.cpu.iq.FU_type_0::SimdAesMix                 0      0.00%     74.80% # Type of FU issued
system.cpu.iq.FU_type_0::SimdSha1Hash               0      0.00%     74.80% # Type of FU issued
system.cpu.iq.FU_type_0::SimdSha1Hash2              0      0.00%     74.80% # Type of FU issued
system.cpu.iq.FU_type_0::SimdSha256Hash             0      0.00%     74.80% # Type of FU issued
system.cpu.iq.FU_type_0::SimdSha256Hash2            0      0.00%     74.80% # Type of FU issued
system.cpu.iq.FU_type_0::SimdShaSigma2              0      0.00%     74.80% # Type of FU issued
system.cpu.iq.FU_type_0::SimdShaSigma3              0      0.00%     74.80% # Type of FU issued
system.cpu.iq.FU_type_0::SimdPredAlu                0      0.00%     74.80% # Type of FU issued
system.cpu.iq.FU_type_0::MemRead              2932316     16.32%     91.12% # Type of FU issued
system.cpu.iq.FU_type_0::MemWrite             1197580      6.67%     97.79% # Type of FU issued
system.cpu.iq.FU_type_0::FloatMemRead           40365      0.22%     98.01% # Type of FU issued
system.cpu.iq.FU_type_0::FloatMemWrite         357612      1.99%    100.00% # Type of FU issued
system.cpu.iq.FU_type_0::IprAccess                  0      0.00%    100.00% # Type of FU issued
system.cpu.iq.FU_type_0::InstPrefetch               0      0.00%    100.00% # Type of FU issued
system.cpu.iq.FU_type_0::total               17967626                       # Type of FU issued
system.cpu.iq.fp_alu_accesses                  928520                       # Number of floating point alu accesses
system.cpu.iq.fp_inst_queue_reads             1825415                       # Number of floating instruction queue reads
system.cpu.iq.fp_inst_queue_wakeup_accesses       873482                       # Number of floating instruction queue wakeup accesses
system.cpu.iq.fp_inst_queue_writes            1019158                       # Number of floating instruction queue writes
system.cpu.iq.fu_busy_cnt                      272340                       # FU busy when requested
system.cpu.iq.fu_busy_rate                   0.015157                       # FU busy rate (busy events/executed inst)
system.cpu.iq.fu_full::No_OpClass                   0      0.00%      0.00% # attempts to use FU when none available
system.cpu.iq.fu_full::IntAlu                  130368     47.87%     47.87% # attempts to use FU when none available
system.cpu.iq.fu_full::IntMult                      0      0.00%     47.87% # attempts to use FU when none available
system.cpu.iq.fu_full::IntDiv                       0      0.00%     47.87% # attempts to use FU when none available
system.cpu.iq.fu_full::FloatAdd                     0      0.00%     47.87% # attempts to use FU when none available
system.cpu.iq.fu_full::FloatCmp                     0      0.00%     47.87% # attempts to use FU when none available
system.cpu.iq.fu_full::FloatCvt                     0      0.00%     47.87% # attempts to use FU when none available
system.cpu.iq.fu_full::FloatMult                    0      0.00%     47.87% # attempts to use FU when none available
system.cpu.iq.fu_full::FloatMultAcc                 0      0.00%     47.87% # attempts to use FU when none available
system.cpu.iq.fu_full::FloatDiv                     0      0.00%     47.87% # attempts to use FU when none available
system.cpu.iq.fu_full::FloatMisc                    0      0.00%     47.87% # attempts to use FU when none available
system.cpu.iq.fu_full::FloatSqrt                    0      0.00%     47.87% # attempts to use FU when none available
system.cpu.iq.fu_full::SimdAdd                      3      0.00%     47.87% # attempts to use FU when none available
system.cpu.iq.fu_full::SimdAddAcc                   0      0.00%     47.87% # attempts to use FU when none available
system.cpu.iq.fu_full::SimdAlu                    148      0.05%     47.93% # attempts to use FU when none available
system.cpu.iq.fu_full::SimdCmp                      0      0.00%     47.93% # attempts to use FU when none available
system.cpu.iq.fu_full::SimdCvt                    773      0.28%     48.21% # attempts to use FU when none available
system.cpu.iq.fu_full::SimdMisc                 29412     10.80%     59.01% # attempts to use FU when none available
system.cpu.iq.fu_full::SimdMult                     0      0.00%     59.01% # attempts to use FU when none available
system.cpu.iq.fu_full::SimdMultAcc                  0      0.00%     59.01% # attempts to use FU when none available
system.cpu.iq.fu_full::SimdShift                   93      0.03%     59.04% # attempts to use FU when none available
system.cpu.iq.fu_full::SimdShiftAcc                 0      0.00%     59.04% # attempts to use FU when none available
system.cpu.iq.fu_full::SimdDiv                      0      0.00%     59.04% # attempts to use FU when none available
system.cpu.iq.fu_full::SimdSqrt                     0      0.00%     59.04% # attempts to use FU when none available
system.cpu.iq.fu_full::SimdFloatAdd                 0      0.00%     59.04% # attempts to use FU when none available
system.cpu.iq.fu_full::SimdFloatAlu                 0      0.00%     59.04% # attempts to use FU when none available
system.cpu.iq.fu_full::SimdFloatCmp                 0      0.00%     59.04% # attempts to use FU when none available
system.cpu.iq.fu_full::SimdFloatCvt                 0      0.00%     59.04% # attempts to use FU when none available
system.cpu.iq.fu_full::SimdFloatDiv                 0      0.00%     59.04% # attempts to use FU when none available
system.cpu.iq.fu_full::SimdFloatMisc                0      0.00%     59.04% # attempts to use FU when none available
system.cpu.iq.fu_full::SimdFloatMult                0      0.00%     59.04% # attempts to use FU when none available
system.cpu.iq.fu_full::SimdFloatMultAcc             0      0.00%     59.04% # attempts to use FU when none available
system.cpu.iq.fu_full::SimdFloatSqrt                0      0.00%     59.04% # attempts to use FU when none available
system.cpu.iq.fu_full::SimdReduceAdd                0      0.00%     59.04% # attempts to use FU when none available
system.cpu.iq.fu_full::SimdReduceAlu                0      0.00%     59.04% # attempts to use FU when none available
system.cpu.iq.fu_full::SimdReduceCmp                0      0.00%     59.04% # attempts to use FU when none available
system.cpu.iq.fu_full::SimdFloatReduceAdd            0      0.00%     59.04% # attempts to use FU when none available
system.cpu.iq.fu_full::SimdFloatReduceCmp            0      0.00%     59.04% # attempts to use FU when none available
system.cpu.iq.fu_full::SimdAes                      0      0.00%     59.04% # attempts to use FU when none available
system.cpu.iq.fu_full::SimdAesMix                   0      0.00%     59.04% # attempts to use FU when none available
system.cpu.iq.fu_full::SimdSha1Hash                 0      0.00%     59.04% # attempts to use FU when none available
system.cpu.iq.fu_full::SimdSha1Hash2                0      0.00%     59.04% # attempts to use FU when none available
system.cpu.iq.fu_full::SimdSha256Hash               0      0.00%     59.04% # attempts to use FU when none available
system.cpu.iq.fu_full::SimdSha256Hash2              0      0.00%     59.04% # attempts to use FU when none available
system.cpu.iq.fu_full::SimdShaSigma2                0      0.00%     59.04% # attempts to use FU when none available
system.cpu.iq.fu_full::SimdShaSigma3                0      0.00%     59.04% # attempts to use FU when none available
system.cpu.iq.fu_full::SimdPredAlu                  0      0.00%     59.04% # attempts to use FU when none available
system.cpu.iq.fu_full::MemRead                 101621     37.31%     96.36% # attempts to use FU when none available
system.cpu.iq.fu_full::MemWrite                  8528      3.13%     99.49% # attempts to use FU when none available
system.cpu.iq.fu_full::FloatMemRead               582      0.21%     99.70% # attempts to use FU when none available
system.cpu.iq.fu_full::FloatMemWrite              812      0.30%    100.00% # attempts to use FU when none available
system.cpu.iq.fu_full::IprAccess                    0      0.00%    100.00% # attempts to use FU when none available
system.cpu.iq.fu_full::InstPrefetch                 0      0.00%    100.00% # attempts to use FU when none available
system.cpu.iq.int_alu_accesses               17103823                       # Number of integer alu accesses
system.cpu.iq.int_inst_queue_reads           46585840                       # Number of integer instruction queue reads
system.cpu.iq.int_inst_queue_wakeup_accesses     16875051                       # Number of integer instruction queue wakeup accesses
system.cpu.iq.int_inst_queue_writes          21198705                       # Number of integer instruction queue writes
system.cpu.iq.iqInstsAdded                   19115859                       # Number of instructions added to the IQ (excludes non-spec)
system.cpu.iq.iqInstsIssued                  17967626                       # Number of instructions issued
system.cpu.iq.iqNonSpecInstsAdded                1298                       # Number of non-speculative instructions added to the IQ
system.cpu.iq.iqSquashedInstsExamined         3100419                       # Number of squashed instructions iterated over during squash; mainly for profiling
system.cpu.iq.iqSquashedInstsIssued              6853                       # Number of squashed instructions issued
system.cpu.iq.iqSquashedNonSpecRemoved             95                       # Number of squashed non-spec instructions that were removed
system.cpu.iq.iqSquashedOperandsExamined      5199390                       # Number of squashed operands that are examined and possibly removed from graph
system.cpu.iq.issued_per_cycle::samples      12196813                       # Number of insts issued each cycle
system.cpu.iq.issued_per_cycle::mean         1.473141                       # Number of insts issued each cycle
system.cpu.iq.issued_per_cycle::stdev        2.092378                       # Number of insts issued each cycle
system.cpu.iq.issued_per_cycle::underflows            0      0.00%      0.00% # Number of insts issued each cycle
system.cpu.iq.issued_per_cycle::0             6739373     55.26%     55.26% # Number of insts issued each cycle
system.cpu.iq.issued_per_cycle::1             1202359      9.86%     65.11% # Number of insts issued each cycle
system.cpu.iq.issued_per_cycle::2             1081194      8.86%     73.98% # Number of insts issued each cycle
system.cpu.iq.issued_per_cycle::3             1035521      8.49%     82.47% # Number of insts issued each cycle
system.cpu.iq.issued_per_cycle::4              647465      5.31%     87.78% # Number of insts issued each cycle
system.cpu.iq.issued_per_cycle::5              575506      4.72%     92.49% # Number of insts issued each cycle
system.cpu.iq.issued_per_cycle::6              550685      4.51%     97.01% # Number of insts issued each cycle
system.cpu.iq.issued_per_cycle::7              192864      1.58%     98.59% # Number of insts issued each cycle
system.cpu.iq.issued_per_cycle::8              171846      1.41%    100.00% # Number of insts issued each cycle
system.cpu.iq.issued_per_cycle::overflows            0      0.00%    100.00% # Number of insts issued each cycle
system.cpu.iq.issued_per_cycle::min_value            0                       # Number of insts issued each cycle
system.cpu.iq.issued_per_cycle::max_value            8                       # Number of insts issued each cycle
system.cpu.iq.issued_per_cycle::total        12196813                       # Number of insts issued each cycle
system.cpu.iq.rate                           1.457184                       # Inst issue rate
system.cpu.iq.vec_alu_accesses                      0                       # Number of vector alu accesses
system.cpu.iq.vec_inst_queue_reads                  0                       # Number of vector instruction queue reads
system.cpu.iq.vec_inst_queue_wakeup_accesses            0                       # Number of vector instruction queue wakeup accesses
system.cpu.iq.vec_inst_queue_writes                 0                       # Number of vector instruction queue writes
system.cpu.memDep0.conflictingLoads            248351                       # Number of conflicting loads.
system.cpu.memDep0.conflictingStores            93402                       # Number of conflicting stores.
system.cpu.memDep0.insertedLoads              3164878                       # Number of loads inserted to the mem dependence unit.
system.cpu.memDep0.insertedStores             1585483                       # Number of stores inserted to the mem dependence unit.
system.cpu.misc_regfile_reads                 7299347                       # number of misc regfile reads
system.cpu.misc_regfile_writes                    702                       # number of misc regfile writes
system.cpu.numCycles                         12330378                       # number of cpu cycles simulated
system.cpu.numWorkItemsCompleted                    0                       # number of work items this cpu completed
system.cpu.numWorkItemsStarted                      0                       # number of work items this cpu started
system.cpu.timesIdled                            1484                       # Number of times that the entire CPU went into an idle state and unscheduled itself
system.cpu.workload.numSyscalls                    85                       # Number of system calls
system.membus.snoop_filter.hit_multi_requests            0                       # Number of requests hitting in the snoop filter with multiple (>1) holders of the requested data.
system.membus.snoop_filter.hit_multi_snoops            0                       # Number of snoops hitting in the snoop filter with multiple (>1) holders of the requested data.
system.membus.snoop_filter.hit_single_requests        38326                       # Number of requests hitting in the snoop filter with a single holder of the requested data.
system.membus.snoop_filter.hit_single_snoops            0                       # Number of snoops hitting in the snoop filter with a single holder of the requested data.
system.membus.snoop_filter.tot_requests         85286                       # Total number of requests made to the snoop filter.
system.membus.snoop_filter.tot_snoops               0                       # Total number of snoops made to the snoop filter.
system.tol2bus.snoop_filter.hit_multi_requests           10                       # Number of requests hitting in the snoop filter with multiple (>1) holders of the requested data.
system.tol2bus.snoop_filter.hit_multi_snoops            0                       # Number of snoops hitting in the snoop filter with multiple (>1) holders of the requested data.
system.tol2bus.snoop_filter.hit_single_requests        58951                       # Number of requests hitting in the snoop filter with a single holder of the requested data.
system.tol2bus.snoop_filter.hit_single_snoops          880                       # Number of snoops hitting in the snoop filter with a single holder of the requested data.
system.tol2bus.snoop_filter.tot_requests       118923                       # Total number of requests made to the snoop filter.
system.tol2bus.snoop_filter.tot_snoops            880                       # Total number of snoops made to the snoop filter.
system.clk_domain.clock                           250                       # Clock period in ticks
system.cpu.branchPred.lookups                 1816348                       # Number of BP lookups
system.cpu.branchPred.condPredicted           1362454                       # Number of conditional branches predicted
system.cpu.branchPred.condIncorrect             49107                       # Number of conditional branches incorrect
system.cpu.branchPred.BTBLookups               948134                       # Number of BTB lookups
system.cpu.branchPred.BTBHits                  946386                       # Number of BTB hits
system.cpu.branchPred.BTBHitPct             99.815638                       # BTB Hit Percentage
system.cpu.branchPred.RASUsed                  181678                       # Number of times the RAS was used to get a target.
system.cpu.branchPred.RASIncorrect                 16                       # Number of incorrect RAS predictions.
system.cpu.branchPred.indirectLookups           18050                       # Number of indirect predictor lookups.
system.cpu.branchPred.indirectHits              10666                       # Number of indirect target hits.
system.cpu.branchPred.indirectMisses             7384                       # Number of indirect misses.
system.cpu.branchPred.indirectMispredicted         1596                       # Number of mispredicted indirect branches.
system.cpu.branchPred.loop_predictor.correct       659447                       # Number of times the loop predictor is the provider and the prediction is correct
system.cpu.branchPred.loop_predictor.wrong       201051                       # Number of times the loop predictor is the provider and the prediction is wrong
system.cpu.branchPred.tage.longestMatchProviderCorrect       543973                       # Number of times TAGE Longest Match is the provider and the prediction is correct
system.cpu.branchPred.tage.altMatchProviderCorrect         9161                       # Number of times TAGE Alt Match is the provider and the prediction is correct
system.cpu.branchPred.tage.bimodalAltMatchProviderCorrect         1037                       # Number of times TAGE Alt Match is the bimodal and it is the provider and the prediction is correct
system.cpu.branchPred.tage.bimodalProviderCorrect       248147                       # Number of times there are no hits on the TAGE tables and the bimodal prediction is correct
system.cpu.branchPred.tage.longestMatchProviderWrong        34534                       # Number of times TAGE Longest Match is the provider and the prediction is wrong
system.cpu.branchPred.tage.altMatchProviderWrong         5406                       # Number of times TAGE Alt Match is the provider and the prediction is wrong
system.cpu.branchPred.tage.bimodalAltMatchProviderWrong          506                       # Number of times TAGE Alt Match is the bimodal and it is the provider and the prediction is wrong
system.cpu.branchPred.tage.bimodalProviderWrong         1928                       # Number of times there are no hits on the TAGE tables and the bimodal prediction is wrong
system.cpu.branchPred.tage.altMatchProviderWouldHaveHit        12886                       # Number of times TAGE Longest Match is the provider, the prediction is wrong and Alt Match prediction was correct
system.cpu.branchPred.tage.longestMatchProviderWouldHaveHit         3415                       # Number of times TAGE Alt Match is the provider, the prediction is wrong and Longest Match prediction was correct
system.cpu.branchPred.tage.longestMatchProvider::0            0                       # TAGE provider for longest match
system.cpu.branchPred.tage.longestMatchProvider::1        75782                       # TAGE provider for longest match
system.cpu.branchPred.tage.longestMatchProvider::2        76560                       # TAGE provider for longest match
system.cpu.branchPred.tage.longestMatchProvider::3       155971                       # TAGE provider for longest match
system.cpu.branchPred.tage.longestMatchProvider::4        61841                       # TAGE provider for longest match
system.cpu.branchPred.tage.longestMatchProvider::5        49914                       # TAGE provider for longest match
system.cpu.branchPred.tage.longestMatchProvider::6        83151                       # TAGE provider for longest match
system.cpu.branchPred.tage.longestMatchProvider::7        64977                       # TAGE provider for longest match
system.cpu.branchPred.tage.longestMatchProvider::8        16922                       # TAGE provider for longest match
system.cpu.branchPred.tage.longestMatchProvider::9         5302                       # TAGE provider for longest match
system.cpu.branchPred.tage.longestMatchProvider::10         1996                       # TAGE provider for longest match
system.cpu.branchPred.tage.longestMatchProvider::11          338                       # TAGE provider for longest match
system.cpu.branchPred.tage.longestMatchProvider::12          320                       # TAGE provider for longest match
system.cpu.branchPred.tage.altMatchProvider::0       162092                       # TAGE provider for alt match
system.cpu.branchPred.tage.altMatchProvider::1        52948                       # TAGE provider for alt match
system.cpu.branchPred.tage.altMatchProvider::2       115663                       # TAGE provider for alt match
system.cpu.branchPred.tage.altMatchProvider::3        95568                       # TAGE provider for alt match
system.cpu.branchPred.tage.altMatchProvider::4        46616                       # TAGE provider for alt match
system.cpu.branchPred.tage.altMatchProvider::5        51226                       # TAGE provider for alt match
system.cpu.branchPred.tage.altMatchProvider::6        51159                       # TAGE provider for alt match
system.cpu.branchPred.tage.altMatchProvider::7        14603                       # TAGE provider for alt match
system.cpu.branchPred.tage.altMatchProvider::8         1858                       # TAGE provider for alt match
system.cpu.branchPred.tage.altMatchProvider::9          986                       # TAGE provider for alt match
system.cpu.branchPred.tage.altMatchProvider::10          266                       # TAGE provider for alt match
system.cpu.branchPred.tage.altMatchProvider::11           89                       # TAGE provider for alt match
system.cpu.branchPred.tage.altMatchProvider::12            0                       # TAGE provider for alt match
system.cpu.commit.commitSquashedInsts         3094282                       # The number of squashed insts skipped by commit
system.cpu.commit.commitNonSpecStalls            1203                       # The number of times commit has been forced to stall to communicate backwards
system.cpu.commit.branchMispredicts             48475                       # The number of times a branch was mispredicted
system.cpu.commit.numCommittedDist::samples     11783149                       # Number of insts commited each cycle
system.cpu.commit.numCommittedDist::mean     1.359286                       # Number of insts commited each cycle
system.cpu.commit.numCommittedDist::stdev     2.250235                       # Number of insts commited each cycle
system.cpu.commit.numCommittedDist::underflows            0      0.00%      0.00% # Number of insts commited each cycle
system.cpu.commit.numCommittedDist::0         6815235     57.84%     57.84% # Number of insts commited each cycle
system.cpu.commit.numCommittedDist::1         1561050     13.25%     71.09% # Number of insts commited each cycle
system.cpu.commit.numCommittedDist::2         1110796      9.43%     80.51% # Number of insts commited each cycle
system.cpu.commit.numCommittedDist::3          808357      6.86%     87.37% # Number of insts commited each cycle
system.cpu.commit.numCommittedDist::4          142994      1.21%     88.59% # Number of insts commited each cycle
system.cpu.commit.numCommittedDist::5          393767      3.34%     91.93% # Number of insts commited each cycle
system.cpu.commit.numCommittedDist::6          127675      1.08%     93.01% # Number of insts commited each cycle
system.cpu.commit.numCommittedDist::7           84102      0.71%     93.73% # Number of insts commited each cycle
system.cpu.commit.numCommittedDist::8          739173      6.27%    100.00% # Number of insts commited each cycle
system.cpu.commit.numCommittedDist::overflows            0      0.00%    100.00% # Number of insts commited each cycle
system.cpu.commit.numCommittedDist::min_value            0                       # Number of insts commited each cycle
system.cpu.commit.numCommittedDist::max_value            8                       # Number of insts commited each cycle
system.cpu.commit.numCommittedDist::total     11783149                       # Number of insts commited each cycle
system.cpu.commit.instsCommitted             10000004                       # Number of instructions committed
system.cpu.commit.opsCommitted               16016672                       # Number of ops (including micro ops) committed
system.cpu.commit.memRefs                     4150461                       # Number of memory references committed
system.cpu.commit.loads                       2695202                       # Number of loads committed
system.cpu.commit.amos                              0                       # Number of atomic instructions committed
system.cpu.commit.membars                         334                       # Number of memory barriers committed
system.cpu.commit.branches                    1221874                       # Number of branches committed
system.cpu.commit.vector                            0                       # Number of committed Vector instructions.
system.cpu.commit.floating                     829848                       # Number of committed floating point instructions.
system.cpu.commit.integer                    15504649                       # Number of committed integer instructions.
system.cpu.commit.functionCalls                156974                       # Number of function calls committed.
system.cpu.commit.committedInstType_0::No_OpClass       177488      1.11%      1.11% # Class of committed instruction
system.cpu.commit.committedInstType_0::IntAlu     11214635     70.02%     71.13% # Class of committed instruction
system.cpu.commit.committedInstType_0::IntMult           38      0.00%     71.13% # Class of committed instruction
system.cpu.commit.committedInstType_0::IntDiv        40525      0.25%     71.38% # Class of committed instruction
system.cpu.commit.committedInstType_0::FloatAdd       128428      0.80%     72.18% # Class of committed instruction
system.cpu.commit.committedInstType_0::FloatCmp            0      0.00%     72.18% # Class of committed instruction
system.cpu.commit.committedInstType_0::FloatCvt         1248      0.01%     72.19% # Class of committed instruction
system.cpu.commit.committedInstType_0::FloatMult            0      0.00%     72.19% # Class of committed instruction
system.cpu.commit.committedInstType_0::FloatMultAcc            0      0.00%     72.19% # Class of committed instruction
system.cpu.commit.committedInstType_0::FloatDiv            0      0.00%     72.19% # Class of committed instruction
system.cpu.commit.committedInstType_0::FloatMisc            0      0.00%     72.19% # Class of committed instruction
system.cpu.commit.committedInstType_0::FloatSqrt            0      0.00%     72.19% # Class of committed instruction
system.cpu.commit.committedInstType_0::SimdAdd         7936      0.05%     72.24% # Class of committed instruction
system.cpu.commit.committedInstType_0::SimdAddAcc            0      0.00%     72.24% # Class of committed instruction
system.cpu.commit.committedInstType_0::SimdAlu        18147      0.11%     72.35% # Class of committed instruction
system.cpu.commit.committedInstType_0::SimdCmp            6      0.00%     72.35% # Class of committed instruction
system.cpu.commit.committedInstType_0::SimdCvt        16320      0.10%     72.45% # Class of committed instruction
system.cpu.commit.committedInstType_0::SimdMisc       253856      1.58%     74.04% # Class of committed instruction
system.cpu.commit.committedInstType_0::SimdMult            0      0.00%     74.04% # Class of committed instruction
system.cpu.commit.committedInstType_0::SimdMultAcc            0      0.00%     74.04% # Class of committed instruction
system.cpu.commit.committedInstType_0::SimdShift         2037      0.01%     74.05% # Class of committed instruction
system.cpu.commit.committedInstType_0::SimdShiftAcc            0      0.00%     74.05% # Class of committed instruction
system.cpu.commit.committedInstType_0::SimdDiv            0      0.00%     74.05% # Class of committed instruction
system.cpu.commit.committedInstType_0::SimdSqrt            0      0.00%     74.05% # Class of committed instruction
system.cpu.commit.committedInstType_0::SimdFloatAdd            0      0.00%     74.05% # Class of committed instruction
system.cpu.commit.committedInstType_0::SimdFloatAlu            0      0.00%     74.05% # Class of committed instruction
system.cpu.commit.committedInstType_0::SimdFloatCmp            0      0.00%     74.05% # Class of committed instruction
system.cpu.commit.committedInstType_0::SimdFloatCvt         3698      0.02%     74.08% # Class of committed instruction
system.cpu.commit.committedInstType_0::SimdFloatDiv            0      0.00%     74.08% # Class of committed instruction
system.cpu.commit.committedInstType_0::SimdFloatMisc            0      0.00%     74.08% # Class of committed instruction
system.cpu.commit.committedInstType_0::SimdFloatMult         1849      0.01%     74.09% # Class of committed instruction
system.cpu.commit.committedInstType_0::SimdFloatMultAcc            0      0.00%     74.09% # Class of committed instruction
system.cpu.commit.committedInstType_0::SimdFloatSqrt            0      0.00%     74.09% # Class of committed instruction
system.cpu.commit.committedInstType_0::SimdReduceAdd            0      0.00%     74.09% # Class of committed instruction
system.cpu.commit.committedInstType_0::SimdReduceAlu            0      0.00%     74.09% # Class of committed instruction
system.cpu.commit.committedInstType_0::SimdReduceCmp            0      0.00%     74.09% # Class of committed instruction
system.cpu.commit.committedInstType_0::SimdFloatReduceAdd            0      0.00%     74.09% # Class of committed instruction
system.cpu.commit.committedInstType_0::SimdFloatReduceCmp            0      0.00%     74.09% # Class of committed instruction
system.cpu.commit.committedInstType_0::SimdAes            0      0.00%     74.09% # Class of committed instruction
system.cpu.commit.committedInstType_0::SimdAesMix            0      0.00%     74.09% # Class of committed instruction
system.cpu.commit.committedInstType_0::SimdSha1Hash            0      0.00%     74.09% # Class of committed instruction
system.cpu.commit.committedInstType_0::SimdSha1Hash2            0      0.00%     74.09% # Class of committed instruction
system.cpu.commit.committedInstType_0::SimdSha256Hash            0      0.00%     74.09% # Class of committed instruction
system.cpu.commit.committedInstType_0::SimdSha256Hash2            0      0.00%     74.09% # Class of committed instruction
system.cpu.commit.committedInstType_0::SimdShaSigma2            0      0.00%     74.09% # Class of committed instruction
system.cpu.commit.committedInstType_0::SimdShaSigma3            0      0.00%     74.09% # Class of committed instruction
system.cpu.commit.committedInstType_0::SimdPredAlu            0      0.00%     74.09% # Class of committed instruction
system.cpu.commit.committedInstType_0::MemRead      2669945     16.67%     90.76% # Class of committed instruction
system.cpu.commit.committedInstType_0::MemWrite      1117553      6.98%     97.73% # Class of committed instruction
system.cpu.commit.committedInstType_0::FloatMemRead        25257      0.16%     97.89% # Class of committed instruction
system.cpu.commit.committedInstType_0::FloatMemWrite       337706      2.11%    100.00% # Class of committed instruction
system.cpu.commit.committedInstType_0::IprAccess            0      0.00%    100.00% # Class of committed instruction
system.cpu.commit.committedInstType_0::InstPrefetch            0      0.00%    100.00% # Class of committed instruction
system.cpu.commit.committedInstType_0::total     16016672                       # Class of committed instruction
system.cpu.commit.commitEligibleSamples        739173                       # number cycles where commit BW limit reached
system.cpu.dcache.demand_hits::.cpu.data      3457438                       # number of demand (read+write) hits
system.cpu.dcache.demand_hits::total          3457438                       # number of demand (read+write) hits
system.cpu.dcache.overall_hits::.cpu.data      3457438                       # number of overall hits
system.cpu.dcache.overall_hits::total         3457438                       # number of overall hits
system.cpu.dcache.demand_misses::.cpu.data       102602                       # number of demand (read+write) misses
system.cpu.dcache.demand_misses::total         102602                       # number of demand (read+write) misses
system.cpu.dcache.overall_misses::.cpu.data       102602                       # number of overall misses
system.cpu.dcache.overall_misses::total        102602                       # number of overall misses
system.cpu.dcache.demand_miss_latency::.cpu.data   5684747494                       # number of demand (read+write) miss cycles
system.cpu.dcache.demand_miss_latency::total   5684747494                       # number of demand (read+write) miss cycles
system.cpu.dcache.overall_miss_latency::.cpu.data   5684747494                       # number of overall miss cycles
system.cpu.dcache.overall_miss_latency::total   5684747494                       # number of overall miss cycles
system.cpu.dcache.demand_accesses::.cpu.data      3560040                       # number of demand (read+write) accesses
system.cpu.dcache.demand_accesses::total      3560040                       # number of demand (read+write) accesses
system.cpu.dcache.overall_accesses::.cpu.data      3560040                       # number of overall (read+write) accesses
system.cpu.dcache.overall_accesses::total      3560040                       # number of overall (read+write) accesses
system.cpu.dcache.demand_miss_rate::.cpu.data     0.028820                       # miss rate for demand accesses
system.cpu.dcache.demand_miss_rate::total     0.028820                       # miss rate for demand accesses
system.cpu.dcache.overall_miss_rate::.cpu.data     0.028820                       # miss rate for overall accesses
system.cpu.dcache.overall_miss_rate::total     0.028820                       # miss rate for overall accesses
system.cpu.dcache.demand_avg_miss_latency::.cpu.data 55405.815618                       # average overall miss latency
system.cpu.dcache.demand_avg_miss_latency::total 55405.815618                       # average overall miss latency
system.cpu.dcache.overall_avg_miss_latency::.cpu.data 55405.815618                       # average overall miss latency
system.cpu.dcache.overall_avg_miss_latency::total 55405.815618                       # average overall miss latency
system.cpu.dcache.blocked_cycles::no_mshrs        29742                       # number of cycles access was blocked
system.cpu.dcache.blocked_cycles::no_targets          235                       # number of cycles access was blocked
system.cpu.dcache.blocked::no_mshrs               829                       # number of cycles access was blocked
system.cpu.dcache.blocked::no_targets              32                       # number of cycles access was blocked
system.cpu.dcache.avg_blocked_cycles::no_mshrs    35.876960                       # average number of cycles each access was blocked
system.cpu.dcache.avg_blocked_cycles::no_targets     7.343750                       # average number of cycles each access was blocked
system.cpu.dcache.writebacks::.writebacks        41272                       # number of writebacks
system.cpu.dcache.writebacks::total             41272                       # number of writebacks
system.cpu.dcache.demand_mshr_hits::.cpu.data        45103                       # number of demand (read+write) MSHR hits
system.cpu.dcache.demand_mshr_hits::total        45103                       # number of demand (read+write) MSHR hits
system.cpu.dcache.overall_mshr_hits::.cpu.data        45103                       # number of overall MSHR hits
system.cpu.dcache.overall_mshr_hits::total        45103                       # number of overall MSHR hits
system.cpu.dcache.demand_mshr_misses::.cpu.data        57499                       # number of demand (read+write) MSHR misses
system.cpu.dcache.demand_mshr_misses::total        57499                       # number of demand (read+write) MSHR misses
system.cpu.dcache.overall_mshr_misses::.cpu.data        57499                       # number of overall MSHR misses
system.cpu.dcache.overall_mshr_misses::total        57499                       # number of overall MSHR misses
system.cpu.dcache.demand_mshr_miss_latency::.cpu.data   3446955494                       # number of demand (read+write) MSHR miss cycles
system.cpu.dcache.demand_mshr_miss_latency::total   3446955494                       # number of demand (read+write) MSHR miss cycles
system.cpu.dcache.overall_mshr_miss_latency::.cpu.data   3446955494                       # number of overall MSHR miss cycles
system.cpu.dcache.overall_mshr_miss_latency::total   3446955494                       # number of overall MSHR miss cycles
system.cpu.dcache.demand_mshr_miss_rate::.cpu.data     0.016151                       # mshr miss rate for demand accesses
system.cpu.dcache.demand_mshr_miss_rate::total     0.016151                       # mshr miss rate for demand accesses
system.cpu.dcache.overall_mshr_miss_rate::.cpu.data     0.016151                       # mshr miss rate for overall accesses
system.cpu.dcache.overall_mshr_miss_rate::total     0.016151                       # mshr miss rate for overall accesses
system.cpu.dcache.demand_avg_mshr_miss_latency::.cpu.data 59948.094645                       # average overall mshr miss latency
system.cpu.dcache.demand_avg_mshr_miss_latency::total 59948.094645                       # average overall mshr miss latency
system.cpu.dcache.overall_avg_mshr_miss_latency::.cpu.data 59948.094645                       # average overall mshr miss latency
system.cpu.dcache.overall_avg_mshr_miss_latency::total 59948.094645                       # average overall mshr miss latency
system.cpu.dcache.replacements                  56987                       # number of replacements
system.cpu.dcache.ReadReq_hits::.cpu.data      2039030                       # number of ReadReq hits
system.cpu.dcache.ReadReq_hits::total         2039030                       # number of ReadReq hits
system.cpu.dcache.ReadReq_misses::.cpu.data        65748                       # number of ReadReq misses
system.cpu.dcache.ReadReq_misses::total         65748                       # number of ReadReq misses
system.cpu.dcache.ReadReq_miss_latency::.cpu.data   3030301000                       # number of ReadReq miss cycles
system.cpu.dcache.ReadReq_miss_latency::total   3030301000                       # number of ReadReq miss cycles
system.cpu.dcache.ReadReq_accesses::.cpu.data      2104778                       # number of ReadReq accesses(hits+misses)
system.cpu.dcache.ReadReq_accesses::total      2104778                       # number of ReadReq accesses(hits+misses)
system.cpu.dcache.ReadReq_miss_rate::.cpu.data     0.031237                       # miss rate for ReadReq accesses
system.cpu.dcache.ReadReq_miss_rate::total     0.031237                       # miss rate for ReadReq accesses
system.cpu.dcache.ReadReq_avg_miss_latency::.cpu.data 46089.630103                       # average ReadReq miss latency
system.cpu.dcache.ReadReq_avg_miss_latency::total 46089.630103                       # average ReadReq miss latency
system.cpu.dcache.ReadReq_mshr_hits::.cpu.data        45088                       # number of ReadReq MSHR hits
system.cpu.dcache.ReadReq_mshr_hits::total        45088                       # number of ReadReq MSHR hits
system.cpu.dcache.ReadReq_mshr_misses::.cpu.data        20660                       # number of ReadReq MSHR misses
system.cpu.dcache.ReadReq_mshr_misses::total        20660                       # number of ReadReq MSHR misses
system.cpu.dcache.ReadReq_mshr_miss_latency::.cpu.data    829870000                       # number of ReadReq MSHR miss cycles
system.cpu.dcache.ReadReq_mshr_miss_latency::total    829870000                       # number of ReadReq MSHR miss cycles
system.cpu.dcache.ReadReq_mshr_miss_rate::.cpu.data     0.009816                       # mshr miss rate for ReadReq accesses
system.cpu.dcache.ReadReq_mshr_miss_rate::total     0.009816                       # mshr miss rate for ReadReq accesses
system.cpu.dcache.ReadReq_avg_mshr_miss_latency::.cpu.data 40167.957406                       # average ReadReq mshr miss latency
system.cpu.dcache.ReadReq_avg_mshr_miss_latency::total 40167.957406                       # average ReadReq mshr miss latency
system.cpu.dcache.WriteReq_hits::.cpu.data      1418408                       # number of WriteReq hits
system.cpu.dcache.WriteReq_hits::total        1418408                       # number of WriteReq hits
system.cpu.dcache.WriteReq_misses::.cpu.data        36854                       # number of WriteReq misses
system.cpu.dcache.WriteReq_misses::total        36854                       # number of WriteReq misses
system.cpu.dcache.WriteReq_miss_latency::.cpu.data   2654446494                       # number of WriteReq miss cycles
system.cpu.dcache.WriteReq_miss_latency::total   2654446494                       # number of WriteReq miss cycles
system.cpu.dcache.WriteReq_accesses::.cpu.data      1455262                       # number of WriteReq accesses(hits+misses)
system.cpu.dcache.WriteReq_accesses::total      1455262                       # number of WriteReq accesses(hits+misses)
system.cpu.dcache.WriteReq_miss_rate::.cpu.data     0.025325                       # miss rate for WriteReq accesses
system.cpu.dcache.WriteReq_miss_rate::total     0.025325                       # miss rate for WriteReq accesses
system.cpu.dcache.WriteReq_avg_miss_latency::.cpu.data 72026.007869                       # average WriteReq miss latency
system.cpu.dcache.WriteReq_avg_miss_latency::total 72026.007869                       # average WriteReq miss latency
system.cpu.dcache.WriteReq_mshr_hits::.cpu.data           15                       # number of WriteReq MSHR hits
system.cpu.dcache.WriteReq_mshr_hits::total           15                       # number of WriteReq MSHR hits
system.cpu.dcache.WriteReq_mshr_misses::.cpu.data        36839                       # number of WriteReq MSHR misses
system.cpu.dcache.WriteReq_mshr_misses::total        36839                       # number of WriteReq MSHR misses
system.cpu.dcache.WriteReq_mshr_miss_latency::.cpu.data   2617085494                       # number of WriteReq MSHR miss cycles
system.cpu.dcache.WriteReq_mshr_miss_latency::total   2617085494                       # number of WriteReq MSHR miss cycles
system.cpu.dcache.WriteReq_mshr_miss_rate::.cpu.data     0.025314                       # mshr miss rate for WriteReq accesses
system.cpu.dcache.WriteReq_mshr_miss_rate::total     0.025314                       # mshr miss rate for WriteReq accesses
system.cpu.dcache.WriteReq_avg_mshr_miss_latency::.cpu.data 71041.165450                       # average WriteReq mshr miss latency
system.cpu.dcache.WriteReq_avg_mshr_miss_latency::total 71041.165450                       # average WriteReq mshr miss latency
system.cpu.dcache.power_state.pwrStateResidencyTicks::UNDEFINED   6165188500                       # Cumulative time (in ticks) in various power states
system.cpu.dcache.tags.tagsinuse           509.307099                       # Cycle average of tags in use
system.cpu.dcache.tags.total_refs             3514937                       # Total number of references to valid blocks.
system.cpu.dcache.tags.sampled_refs             57499                       # Sample count of references to valid blocks.
system.cpu.dcache.tags.avg_refs             61.130402                       # Average number of references to valid blocks.
system.cpu.dcache.tags.warmup_cycle            163000                       # Cycle when the warmup percentage was hit.
system.cpu.dcache.tags.occ_blocks::.cpu.data   509.307099                       # Average occupied blocks per requestor
system.cpu.dcache.tags.occ_percent::.cpu.data     0.994740                       # Average percentage of cache occupancy
system.cpu.dcache.tags.occ_percent::total     0.994740                       # Average percentage of cache occupancy
system.cpu.dcache.tags.occ_task_id_blocks::1024          512                       # Occupied blocks per task id
system.cpu.dcache.tags.age_task_id_blocks_1024::0           11                       # Occupied blocks per task id
system.cpu.dcache.tags.age_task_id_blocks_1024::1           39                       # Occupied blocks per task id
system.cpu.dcache.tags.age_task_id_blocks_1024::2          171                       # Occupied blocks per task id
system.cpu.dcache.tags.age_task_id_blocks_1024::3          291                       # Occupied blocks per task id
system.cpu.dcache.tags.occ_task_id_percent::1024            1                       # Percentage of cache occupancy per task id
system.cpu.dcache.tags.tag_accesses           7177579                       # Number of tag accesses
system.cpu.dcache.tags.data_accesses          7177579                       # Number of data accesses
system.cpu.dcache.tags.power_state.pwrStateResidencyTicks::UNDEFINED   6165188500                       # Cumulative time (in ticks) in various power states
system.cpu.decode.idleCycles                  1147393                       # Number of cycles decode is idle
system.cpu.decode.blockedCycles               8251778                       # Number of cycles decode is blocked
system.cpu.decode.runCycles                   1966774                       # Number of cycles decode is running
system.cpu.decode.unblockCycles                781205                       # Number of cycles decode is unblocking
system.cpu.decode.squashCycles                  49663                       # Number of cycles decode is squashing
system.cpu.decode.branchResolved               907617                       # Number of times decode resolved a  branch
system.cpu.decode.branchMispred                  1439                       # Number of times decode detected a branch misprediction
system.cpu.decode.decodedInsts               19795150                       # Number of instructions handled by decode
system.cpu.decode.squashedInsts                  6988                       # Number of squashed instructions handled by decode
system.cpu.dtb.rdAccesses                     2951971                       # TLB accesses on read requests
system.cpu.dtb.wrAccesses                     1548742                       # TLB accesses on write requests
system.cpu.dtb.rdMisses                          2942                       # TLB misses on read requests
system.cpu.dtb.wrMisses                         16708                       # TLB misses on write requests
system.cpu.dtb.walker.power_state.pwrStateResidencyTicks::UNDEFINED   6165188500                       # Cumulative time (in ticks) in various power states
system.cpu.dtb_walker_cache.blocked_cycles::no_mshrs            0                       # number of cycles access was blocked
system.cpu.dtb_walker_cache.blocked_cycles::no_targets            0                       # number of cycles access was blocked
system.cpu.dtb_walker_cache.blocked::no_mshrs            0                       # number of cycles access was blocked
system.cpu.dtb_walker_cache.blocked::no_targets            0                       # number of cycles access was blocked
system.cpu.dtb_walker_cache.avg_blocked_cycles::no_mshrs          nan                       # average number of cycles each access was blocked
system.cpu.dtb_walker_cache.avg_blocked_cycles::no_targets          nan                       # average number of cycles each access was blocked
system.cpu.dtb_walker_cache.replacements            0                       # number of replacements
system.cpu.dtb_walker_cache.power_state.pwrStateResidencyTicks::UNDEFINED   6165188500                       # Cumulative time (in ticks) in various power states
system.cpu.dtb_walker_cache.tags.tagsinuse            0                       # Cycle average of tags in use
system.cpu.dtb_walker_cache.tags.total_refs            0                       # Total number of references to valid blocks.
system.cpu.dtb_walker_cache.tags.sampled_refs            0                       # Sample count of references to valid blocks.
system.cpu.dtb_walker_cache.tags.avg_refs          nan                       # Average number of references to valid blocks.
system.cpu.dtb_walker_cache.tags.warmup_cycle            0                       # Cycle when the warmup percentage was hit.
system.cpu.dtb_walker_cache.tags.tag_accesses            0                       # Number of tag accesses
system.cpu.dtb_walker_cache.tags.data_accesses            0                       # Number of data accesses
system.cpu.dtb_walker_cache.tags.power_state.pwrStateResidencyTicks::UNDEFINED   6165188500                       # Cumulative time (in ticks) in various power states
system.cpu.fetch.icacheStallCycles            1272430                       # Number of cycles fetch is stalled on an Icache miss
system.cpu.fetch.insts                       12388570                       # Number of instructions fetch has processed
system.cpu.fetch.branches                     1816348                       # Number of branches that fetch encountered
system.cpu.fetch.predictedBranches            1138730                       # Number of branches that fetch has predicted taken
system.cpu.fetch.cycles                      10866637                       # Number of cycles fetch has run and was not squashing or blocked
system.cpu.fetch.squashCycles                  102146                       # Number of cycles fetch has spent squashing
system.cpu.fetch.miscStallCycles                  813                       # Number of cycles fetch has spent waiting on interrupts,or bad addresses, or out of MSHRs
system.cpu.fetch.pendingTrapStallCycles          5817                       # Number of stall cycles due to pending traps
system.cpu.fetch.pendingQuiesceStallCycles           26                       # Number of stall cycles due to pending quiesce instructions
system.cpu.fetch.icacheWaitRetryStallCycles           17                       # Number of stall cycles due to full MSHR
system.cpu.fetch.cacheLines                   1167143                       # Number of cache lines fetched
system.cpu.fetch.icacheSquashes                 12211                       # Number of outstanding Icache misses that were squashed
system.cpu.fetch.nisnDist::samples           12196813                       # Number of instructions fetched each cycle (Total)
system.cpu.fetch.nisnDist::mean              1.670812                       # Number of instructions fetched each cycle (Total)
system.cpu.fetch.nisnDist::stdev             2.985192                       # Number of instructions fetched each cycle (Total)
system.cpu.fetch.nisnDist::underflows               0      0.00%      0.00% # Number of instructions fetched each cycle (Total)
system.cpu.fetch.nisnDist::0                  8851461     72.57%     72.57% # Number of instructions fetched each cycle (Total)
system.cpu.fetch.nisnDist::1                   154783      1.27%     73.84% # Number of instructions fetched each cycle (Total)
system.cpu.fetch.nisnDist::2                   298824      2.45%     76.29% # Number of instructions fetched each cycle (Total)
system.cpu.fetch.nisnDist::3                   176432      1.45%     77.74% # Number of instructions fetched each cycle (Total)
system.cpu.fetch.nisnDist::4                   279596      2.29%     80.03% # Number of instructions fetched each cycle (Total)
system.cpu.fetch.nisnDist::5                   229466      1.88%     81.91% # Number of instructions fetched each cycle (Total)
system.cpu.fetch.nisnDist::6                   336924      2.76%     84.67% # Number of instructions fetched each cycle (Total)
system.cpu.fetch.nisnDist::7                   145018      1.19%     85.86% # Number of instructions fetched each cycle (Total)
system.cpu.fetch.nisnDist::8                  1724309     14.14%    100.00% # Number of instructions fetched each cycle (Total)
system.cpu.fetch.nisnDist::overflows                0      0.00%    100.00% # Number of instructions fetched each cycle (Total)
system.cpu.fetch.nisnDist::min_value                0                       # Number of instructions fetched each cycle (Total)
system.cpu.fetch.nisnDist::max_value                8                       # Number of instructions fetched each cycle (Total)
system.cpu.fetch.nisnDist::total             12196813                       # Number of instructions fetched each cycle (Total)
system.cpu.fetch.branchRate                  0.147307                       # Number of branch fetches per cycle
system.cpu.fetch.rate                        1.004719                       # Number of inst fetches per cycle
system.cpu.icache.demand_hits::.cpu.inst      1164015                       # number of demand (read+write) hits
system.cpu.icache.demand_hits::total          1164015                       # number of demand (read+write) hits
system.cpu.icache.overall_hits::.cpu.inst      1164015                       # number of overall hits
system.cpu.icache.overall_hits::total         1164015                       # number of overall hits
system.cpu.icache.demand_misses::.cpu.inst         3128                       # number of demand (read+write) misses
system.cpu.icache.demand_misses::total           3128                       # number of demand (read+write) misses
system.cpu.icache.overall_misses::.cpu.inst         3128                       # number of overall misses
system.cpu.icache.overall_misses::total          3128                       # number of overall misses
system.cpu.icache.demand_miss_latency::.cpu.inst    192985500                       # number of demand (read+write) miss cycles
system.cpu.icache.demand_miss_latency::total    192985500                       # number of demand (read+write) miss cycles
system.cpu.icache.overall_miss_latency::.cpu.inst    192985500                       # number of overall miss cycles
system.cpu.icache.overall_miss_latency::total    192985500                       # number of overall miss cycles
system.cpu.icache.demand_accesses::.cpu.inst      1167143                       # number of demand (read+write) accesses
system.cpu.icache.demand_accesses::total      1167143                       # number of demand (read+write) accesses
system.cpu.icache.overall_accesses::.cpu.inst      1167143                       # number of overall (read+write) accesses
system.cpu.icache.overall_accesses::total      1167143                       # number of overall (read+write) accesses
system.cpu.icache.demand_miss_rate::.cpu.inst     0.002680                       # miss rate for demand accesses
system.cpu.icache.demand_miss_rate::total     0.002680                       # miss rate for demand accesses
system.cpu.icache.overall_miss_rate::.cpu.inst     0.002680                       # miss rate for overall accesses
system.cpu.icache.overall_miss_rate::total     0.002680                       # miss rate for overall accesses
system.cpu.icache.demand_avg_miss_latency::.cpu.inst 61696.131714                       # average overall miss latency
system.cpu.icache.demand_avg_miss_latency::total 61696.131714                       # average overall miss latency
system.cpu.icache.overall_avg_miss_latency::.cpu.inst 61696.131714                       # average overall miss latency
system.cpu.icache.overall_avg_miss_latency::total 61696.131714                       # average overall miss latency
system.cpu.icache.blocked_cycles::no_mshrs          170                       # number of cycles access was blocked
system.cpu.icache.blocked_cycles::no_targets            0                       # number of cycles access was blocked
system.cpu.icache.blocked::no_mshrs                 6                       # number of cycles access was blocked
system.cpu.icache.blocked::no_targets               0                       # number of cycles access was blocked
system.cpu.icache.avg_blocked_cycles::no_mshrs    28.333333                       # average number of cycles each access was blocked
system.cpu.icache.avg_blocked_cycles::no_targets          nan                       # average number of cycles each access was blocked
system.cpu.icache.writebacks::.writebacks         1964                       # number of writebacks
system.cpu.icache.writebacks::total              1964                       # number of writebacks
system.cpu.icache.demand_mshr_hits::.cpu.inst          655                       # number of demand (read+write) MSHR hits
system.cpu.icache.demand_mshr_hits::total          655                       # number of demand (read+write) MSHR hits
system.cpu.icache.overall_mshr_hits::.cpu.inst          655                       # number of overall MSHR hits
system.cpu.icache.overall_mshr_hits::total          655                       # number of overall MSHR hits
system.cpu.icache.demand_mshr_misses::.cpu.inst         2473                       # number of demand (read+write) MSHR misses
system.cpu.icache.demand_mshr_misses::total         2473                       # number of demand (read+write) MSHR misses
system.cpu.icache.overall_mshr_misses::.cpu.inst         2473                       # number of overall MSHR misses
system.cpu.icache.overall_mshr_misses::total         2473                       # number of overall MSHR misses
system.cpu.icache.demand_mshr_miss_latency::.cpu.inst    154660500                       # number of demand (read+write) MSHR miss cycles
system.cpu.icache.demand_mshr_miss_latency::total    154660500                       # number of demand (read+write) MSHR miss cycles
system.cpu.icache.overall_mshr_miss_latency::.cpu.inst    154660500                       # number of overall MSHR miss cycles
system.cpu.icache.overall_mshr_miss_latency::total    154660500                       # number of overall MSHR miss cycles
system.cpu.icache.demand_mshr_miss_rate::.cpu.inst     0.002119                       # mshr miss rate for demand accesses
system.cpu.icache.demand_mshr_miss_rate::total     0.002119                       # mshr miss rate for demand accesses
system.cpu.icache.overall_mshr_miss_rate::.cpu.inst     0.002119                       # mshr miss rate for overall accesses
system.cpu.icache.overall_mshr_miss_rate::total     0.002119                       # mshr miss rate for overall accesses
system.cpu.icache.demand_avg_mshr_miss_latency::.cpu.inst 62539.627982                       # average overall mshr miss latency
system.cpu.icache.demand_avg_mshr_miss_latency::total 62539.627982                       # average overall mshr miss latency
system.cpu.icache.overall_avg_mshr_miss_latency::.cpu.inst 62539.627982                       # average overall mshr miss latency
system.cpu.icache.overall_avg_mshr_miss_latency::total 62539.627982                       # average overall mshr miss latency
system.cpu.icache.replacements                   1964                       # number of replacements
system.cpu.icache.ReadReq_hits::.cpu.inst      1164015                       # number of ReadReq hits
system.cpu.icache.ReadReq_hits::total         1164015                       # number of ReadReq hits
system.cpu.icache.ReadReq_misses::.cpu.inst         3128                       # number of ReadReq misses
system.cpu.icache.ReadReq_misses::total          3128                       # number of ReadReq misses
system.cpu.icache.ReadReq_miss_latency::.cpu.inst    192985500                       # number of ReadReq miss cycles
system.cpu.icache.ReadReq_miss_latency::total    192985500                       # number of ReadReq miss cycles
system.cpu.icache.ReadReq_accesses::.cpu.inst      1167143                       # number of ReadReq accesses(hits+misses)
system.cpu.icache.ReadReq_accesses::total      1167143                       # number of ReadReq accesses(hits+misses)
system.cpu.icache.ReadReq_miss_rate::.cpu.inst     0.002680                       # miss rate for ReadReq accesses
system.cpu.icache.ReadReq_miss_rate::total     0.002680                       # miss rate for ReadReq accesses
system.cpu.icache.ReadReq_avg_miss_latency::.cpu.inst 61696.131714                       # average ReadReq miss latency
system.cpu.icache.ReadReq_avg_miss_latency::total 61696.131714                       # average ReadReq miss latency
system.cpu.icache.ReadReq_mshr_hits::.cpu.inst          655                       # number of ReadReq MSHR hits
system.cpu.icache.ReadReq_mshr_hits::total          655                       # number of ReadReq MSHR hits
system.cpu.icache.ReadReq_mshr_misses::.cpu.inst         2473                       # number of ReadReq MSHR misses
system.cpu.icache.ReadReq_mshr_misses::total         2473                       # number of ReadReq MSHR misses
system.cpu.icache.ReadReq_mshr_miss_latency::.cpu.inst    154660500                       # number of ReadReq MSHR miss cycles
system.cpu.icache.ReadReq_mshr_miss_latency::total    154660500                       # number of ReadReq MSHR miss cycles
system.cpu.icache.ReadReq_mshr_miss_rate::.cpu.inst     0.002119                       # mshr miss rate for ReadReq accesses
system.cpu.icache.ReadReq_mshr_miss_rate::total     0.002119                       # mshr miss rate for ReadReq accesses
system.cpu.icache.ReadReq_avg_mshr_miss_latency::.cpu.inst 62539.627982                       # average ReadReq mshr miss latency
system.cpu.icache.ReadReq_avg_mshr_miss_latency::total 62539.627982                       # average ReadReq mshr miss latency
system.cpu.icache.power_state.pwrStateResidencyTicks::UNDEFINED   6165188500                       # Cumulative time (in ticks) in various power states
system.cpu.icache.tags.tagsinuse           500.989412                       # Cycle average of tags in use
system.cpu.icache.tags.total_refs             1166488                       # Total number of references to valid blocks.
system.cpu.icache.tags.sampled_refs              2473                       # Sample count of references to valid blocks.
system.cpu.icache.tags.avg_refs            471.689446                       # Average number of references to valid blocks.
system.cpu.icache.tags.warmup_cycle             79500                       # Cycle when the warmup percentage was hit.
system.cpu.icache.tags.occ_blocks::.cpu.inst   500.989412                       # Average occupied blocks per requestor
system.cpu.icache.tags.occ_percent::.cpu.inst     0.978495                       # Average percentage of cache occupancy
system.cpu.icache.tags.occ_percent::total     0.978495                       # Average percentage of cache occupancy
system.cpu.icache.tags.occ_task_id_blocks::1024          509                       # Occupied blocks per task id
system.cpu.icache.tags.age_task_id_blocks_1024::3          509                       # Occupied blocks per task id
system.cpu.icache.tags.occ_task_id_percent::1024     0.994141                       # Percentage of cache occupancy per task id
system.cpu.icache.tags.tag_accesses           2336759                       # Number of tag accesses
system.cpu.icache.tags.data_accesses          2336759                       # Number of data accesses
system.cpu.icache.tags.power_state.pwrStateResidencyTicks::UNDEFINED   6165188500                       # Cumulative time (in ticks) in various power states
system.cpu.interrupts.clk_domain.clock           8000                       # Clock period in ticks
system.cpu.itb.rdAccesses                           0                       # TLB accesses on read requests
system.cpu.itb.wrAccesses                     1167999                       # TLB accesses on write requests
system.cpu.itb.rdMisses                             0                       # TLB misses on read requests
system.cpu.itb.wrMisses                          1168                       # TLB misses on write requests
system.cpu.itb.walker.power_state.pwrStateResidencyTicks::UNDEFINED   6165188500                       # Cumulative time (in ticks) in various power states
system.cpu.itb_walker_cache.blocked_cycles::no_mshrs            0                       # number of cycles access was blocked
system.cpu.itb_walker_cache.blocked_cycles::no_targets            0                       # number of cycles access was blocked
system.cpu.itb_walker_cache.blocked::no_mshrs            0                       # number of cycles access was blocked
system.cpu.itb_walker_cache.blocked::no_targets            0                       # number of cycles access was blocked
system.cpu.itb_walker_cache.avg_blocked_cycles::no_mshrs          nan                       # average number of cycles each access was blocked
system.cpu.itb_walker_cache.avg_blocked_cycles::no_targets          nan                       # average number of cycles each access was blocked
system.cpu.itb_walker_cache.replacements            0                       # number of replacements
system.cpu.itb_walker_cache.power_state.pwrStateResidencyTicks::UNDEFINED   6165188500                       # Cumulative time (in ticks) in various power states
system.cpu.itb_walker_cache.tags.tagsinuse            0                       # Cycle average of tags in use
system.cpu.itb_walker_cache.tags.total_refs            0                       # Total number of references to valid blocks.
system.cpu.itb_walker_cache.tags.sampled_refs            0                       # Sample count of references to valid blocks.
system.cpu.itb_walker_cache.tags.avg_refs          nan                       # Average number of references to valid blocks.
system.cpu.itb_walker_cache.tags.warmup_cycle            0                       # Cycle when the warmup percentage was hit.
system.cpu.itb_walker_cache.tags.tag_accesses            0                       # Number of tag accesses
system.cpu.itb_walker_cache.tags.data_accesses            0                       # Number of data accesses
system.cpu.itb_walker_cache.tags.power_state.pwrStateResidencyTicks::UNDEFINED   6165188500                       # Cumulative time (in ticks) in various power states
system.cpu.lsq0.forwLoads                      845556                       # Number of loads that had data forwarded from stores
system.cpu.lsq0.squashedLoads                  469659                       # Number of loads squashed
system.cpu.lsq0.ignoredResponses                 2557                       # Number of memory responses ignored because the instruction is squashed
system.cpu.lsq0.memOrderViolation                 292                       # Number of memory ordering violations
system.cpu.lsq0.squashedStores                 130214                       # Number of stores squashed
system.cpu.lsq0.rescheduledLoads                   10                       # Number of loads that were rescheduled
system.cpu.lsq0.blockedByCache                    703                       # Number of times an access to memory failed due to the cache being blocked
system.cpu.power_state.pwrStateResidencyTicks::ON   6165188500                       # Cumulative time (in ticks) in various power states
system.cpu.rename.squashCycles                  49663                       # Number of cycles rename is squashing
system.cpu.rename.idleCycles                  1456289                       # Number of cycles rename is idle
system.cpu.rename.blockCycles                 3602144                       # Number of cycles rename is blocking
system.cpu.rename.serializeStallCycles          13676                       # count of cycles rename stalledfor serializing inst
system.cpu.rename.runCycles                   2422487                       # Number of cycles rename is running
system.cpu.rename.unblockCycles               4652554                       # Number of cycles rename is unblocking
system.cpu.rename.renamedInsts               19539700                       # Number of instructions processed by rename
system.cpu.rename.ROBFullEvents                 10361                       # Number of times rename has blocked due to ROB full
system.cpu.rename.IQFullEvents                 812637                       # Number of times rename has blocked due to IQ full
system.cpu.rename.LQFullEvents                 738006                       # Number of times rename has blocked due to LQ full
system.cpu.rename.SQFullEvents                3079086                       # Number of times rename has blocked due to SQ full
system.cpu.rename.fullRegistersEvents             166                       # Number of times there has been no free registers
system.cpu.rename.renamedOperands            25582251                       # Number of destination operands rename has renamed
system.cpu.rename.lookups                    52891684                       # Number of register rename lookups that rename has made
system.cpu.rename.intLookups                 32578920                       # Number of integer rename lookups
system.cpu.rename.fpLookups                   1060028                       # Number of floating rename lookups
system.cpu.rename.committedMaps              21428780                       # Number of HB maps that are committed
[...]
system.mem_ctrls.dram.bw_total::.cpu.data    466277390                       # Total bandwidth to/from this memory (bytes/s)
system.mem_ctrls.dram.bw_total::total       780765746                       # Total bandwidth to/from this memory (bytes/s)
system.mem_ctrls.dram.readBursts                46956                       # Number of DRAM read bursts
system.mem_ctrls.dram.writeBursts               28224                       # Number of DRAM write bursts
system.mem_ctrls.dram.perBankRdBursts::0         3270                       # Per bank write bursts
system.mem_ctrls.dram.perBankRdBursts::1         3152                       # Per bank write bursts
system.mem_ctrls.dram.perBankRdBursts::2         2983                       # Per bank write bursts
system.mem_ctrls.dram.perBankRdBursts::3         2999                       # Per bank write bursts
system.mem_ctrls.dram.perBankRdBursts::4         2974                       # Per bank write bursts
system.mem_ctrls.dram.perBankRdBursts::5         3062                       # Per bank write bursts
system.mem_ctrls.dram.perBankRdBursts::6         3058                       # Per bank write bursts
system.mem_ctrls.dram.perBankRdBursts::7         2841                       # Per bank write bursts
system.mem_ctrls.dram.perBankRdBursts::8         2907                       # Per bank write bursts
system.mem_ctrls.dram.perBankRdBursts::9         2791                       # Per bank write bursts
system.mem_ctrls.dram.perBankRdBursts::10         2891                       # Per bank write bursts
system.mem_ctrls.dram.perBankRdBursts::11         2878                       # Per bank write bursts
system.mem_ctrls.dram.perBankRdBursts::12         2908                       # Per bank write bursts
system.mem_ctrls.dram.perBankRdBursts::13         2709                       # Per bank write bursts
system.mem_ctrls.dram.perBankRdBursts::14         2855                       # Per bank write bursts
system.mem_ctrls.dram.perBankRdBursts::15         2678                       # Per bank write bursts
system.mem_ctrls.dram.perBankWrBursts::0         1850                       # Per bank write bursts
system.mem_ctrls.dram.perBankWrBursts::1         2033                       # Per bank write bursts
system.mem_ctrls.dram.perBankWrBursts::2         1876                       # Per bank write bursts
system.mem_ctrls.dram.perBankWrBursts::3         1857                       # Per bank write bursts
system.mem_ctrls.dram.perBankWrBursts::4         1821                       # Per bank write bursts
system.mem_ctrls.dram.perBankWrBursts::5         1639                       # Per bank write bursts
system.mem_ctrls.dram.perBankWrBursts::6         1732                       # Per bank write bursts
system.mem_ctrls.dram.perBankWrBursts::7         1721                       # Per bank write bursts
system.mem_ctrls.dram.perBankWrBursts::8         1788                       # Per bank write bursts
system.mem_ctrls.dram.perBankWrBursts::9         1759                       # Per bank write bursts
system.mem_ctrls.dram.perBankWrBursts::10         1806                       # Per bank write bursts
system.mem_ctrls.dram.perBankWrBursts::11         1693                       # Per bank write bursts
system.mem_ctrls.dram.perBankWrBursts::12         1807                       # Per bank write bursts
system.mem_ctrls.dram.perBankWrBursts::13         1662                       # Per bank write bursts
system.mem_ctrls.dram.perBankWrBursts::14         1678                       # Per bank write bursts
system.mem_ctrls.dram.perBankWrBursts::15         1502                       # Per bank write bursts
system.mem_ctrls.dram.totQLat               462428750                       # Total ticks spent queuing
system.mem_ctrls.dram.totBusLat             234780000                       # Total ticks spent in databus transfers
system.mem_ctrls.dram.totMemAccLat         1342853750                       # Total ticks spent from burst creation until serviced by the DRAM
system.mem_ctrls.dram.avgQLat                 9848.13                       # Average queueing delay per DRAM burst
system.mem_ctrls.dram.avgBusLat               5000.00                       # Average bus latency per DRAM burst
system.mem_ctrls.dram.avgMemAccLat           28598.13                       # Average memory access latency per DRAM burst
system.mem_ctrls.dram.readRowHits               40008                       # Number of row buffer hits during reads
system.mem_ctrls.dram.writeRowHits              25679                       # Number of row buffer hits during writes
system.mem_ctrls.dram.readRowHitRate            85.20                       # Row buffer hit rate for reads
system.mem_ctrls.dram.writeRowHitRate           90.98                       # Row buffer hit rate for writes
system.mem_ctrls.dram.bytesPerActivate::samples         9493                       # Bytes accessed per row activation
system.mem_ctrls.dram.bytesPerActivate::mean   506.849257                       # Bytes accessed per row activation
system.mem_ctrls.dram.bytesPerActivate::gmean   296.626006                       # Bytes accessed per row activation
system.mem_ctrls.dram.bytesPerActivate::stdev   417.238527                       # Bytes accessed per row activation
system.mem_ctrls.dram.bytesPerActivate::0-127         2601     27.40%     27.40% # Bytes accessed per row activation
system.mem_ctrls.dram.bytesPerActivate::128-255         1470     15.49%     42.88% # Bytes accessed per row activation
system.mem_ctrls.dram.bytesPerActivate::256-383          716      7.54%     50.43% # Bytes accessed per row activation
system.mem_ctrls.dram.bytesPerActivate::384-511          432      4.55%     54.98% # Bytes accessed per row activation
system.mem_ctrls.dram.bytesPerActivate::512-639          261      2.75%     57.73% # Bytes accessed per row activation
system.mem_ctrls.dram.bytesPerActivate::640-767          345      3.63%     61.36% # Bytes accessed per row activation
system.mem_ctrls.dram.bytesPerActivate::768-895          312      3.29%     64.65% # Bytes accessed per row activation
system.mem_ctrls.dram.bytesPerActivate::896-1023          222      2.34%     66.99% # Bytes accessed per row activation
system.mem_ctrls.dram.bytesPerActivate::1024-1151         3134     33.01%    100.00% # Bytes accessed per row activation
system.mem_ctrls.dram.bytesPerActivate::total         9493                       # Bytes accessed per row activation
system.mem_ctrls.dram.bytesRead               3005184                       # Total number of bytes read from DRAM
system.mem_ctrls.dram.bytesWritten            1806336                       # Total number of bytes written to DRAM
system.mem_ctrls.dram.avgRdBW              487.443977                       # Average DRAM read bandwidth in MiBytes/s
system.mem_ctrls.dram.avgWrBW              292.989582                       # Average DRAM write bandwidth in MiBytes/s
system.mem_ctrls.dram.peakBW                 12800.00                       # Theoretical peak bandwidth in MiByte/s
system.mem_ctrls.dram.busUtil                    6.10                       # Data bus utilization in percentage
system.mem_ctrls.dram.busUtilRead                3.81                       # Data bus utilization in percentage for reads
system.mem_ctrls.dram.busUtilWrite               2.29                       # Data bus utilization in percentage for writes
system.mem_ctrls.dram.pageHitRate               87.37                       # Row buffer hit rate, read and write combined
system.mem_ctrls.dram.power_state.pwrStateResidencyTicks::UNDEFINED   6165188500                       # Cumulative time (in ticks) in various power states
system.mem_ctrls.dram.rank0.actEnergy        35121660                       # Energy for activate commands per rank (pJ)
system.mem_ctrls.dram.rank0.preEnergy        18667605                       # Energy for precharge commands per rank (pJ)
system.mem_ctrls.dram.rank0.readEnergy      173780460                       # Energy for read commands per rank (pJ)
system.mem_ctrls.dram.rank0.writeEnergy      75841380                       # Energy for write commands per rank (pJ)
system.mem_ctrls.dram.rank0.refreshEnergy 486180240.000000                       # Energy for refresh commands per rank (pJ)
system.mem_ctrls.dram.rank0.actBackEnergy   1554952590                       # Energy for active background per rank (pJ)
system.mem_ctrls.dram.rank0.preBackEnergy   1057998720                       # Energy for precharge background per rank (pJ)
system.mem_ctrls.dram.rank0.actPowerDownEnergy            0                       # Energy for active power-down per rank (pJ)
system.mem_ctrls.dram.rank0.prePowerDownEnergy            0                       # Energy for precharge power-down per rank (pJ)
system.mem_ctrls.dram.rank0.selfRefreshEnergy            0                       # Energy for self refresh per rank (pJ)
system.mem_ctrls.dram.rank0.totalEnergy    3402542655                       # Total energy per rank (pJ)
system.mem_ctrls.dram.rank0.averagePower   551.895965                       # Core power per rank (mW)
system.mem_ctrls.dram.rank0.totalIdleTime            0                       # Total Idle time Per DRAM Rank
system.mem_ctrls.dram.rank0.pwrStateTime::IDLE   2720637250                       # Time in different power states
system.mem_ctrls.dram.rank0.pwrStateTime::REF    205660000                       # Time in different power states
system.mem_ctrls.dram.rank0.pwrStateTime::SREF            0                       # Time in different power states
system.mem_ctrls.dram.rank0.pwrStateTime::PRE_PDN            0                       # Time in different power states
system.mem_ctrls.dram.rank0.pwrStateTime::ACT   3238891250                       # Time in different power states
system.mem_ctrls.dram.rank0.pwrStateTime::ACT_PDN            0                       # Time in different power states
system.mem_ctrls.dram.rank1.actEnergy        32658360                       # Energy for activate commands per rank (pJ)
system.mem_ctrls.dram.rank1.preEnergy        17358330                       # Energy for precharge commands per rank (pJ)
system.mem_ctrls.dram.rank1.readEnergy      161485380                       # Energy for read commands per rank (pJ)
system.mem_ctrls.dram.rank1.writeEnergy      71487900                       # Energy for write commands per rank (pJ)
system.mem_ctrls.dram.rank1.refreshEnergy 486180240.000000                       # Energy for refresh commands per rank (pJ)
system.mem_ctrls.dram.rank1.actBackEnergy   1526082090                       # Energy for active background per rank (pJ)
system.mem_ctrls.dram.rank1.preBackEnergy   1082310720                       # Energy for precharge background per rank (pJ)
system.mem_ctrls.dram.rank1.actPowerDownEnergy            0                       # Energy for active power-down per rank (pJ)
system.mem_ctrls.dram.rank1.prePowerDownEnergy            0                       # Energy for precharge power-down per rank (pJ)
system.mem_ctrls.dram.rank1.selfRefreshEnergy            0                       # Energy for self refresh per rank (pJ)
system.mem_ctrls.dram.rank1.totalEnergy    3377563020                       # Total energy per rank (pJ)
system.mem_ctrls.dram.rank1.averagePower   547.844242                       # Core power per rank (mW)
system.mem_ctrls.dram.rank1.totalIdleTime            0                       # Total Idle time Per DRAM Rank
system.mem_ctrls.dram.rank1.pwrStateTime::IDLE   2786862250                       # Time in different power states
system.mem_ctrls.dram.rank1.pwrStateTime::REF    205660000                       # Time in different power states
system.mem_ctrls.dram.rank1.pwrStateTime::SREF            0                       # Time in different power states
system.mem_ctrls.dram.rank1.pwrStateTime::PRE_PDN            0                       # Time in different power states
system.mem_ctrls.dram.rank1.pwrStateTime::ACT   3172666250                       # Time in different power states
system.mem_ctrls.dram.rank1.pwrStateTime::ACT_PDN            0                       # Time in different power states
system.mem_ctrls.power_state.pwrStateResidencyTicks::UNDEFINED   6165188500                       # Cumulative time (in ticks) in various power states
system.membus.trans_dist::ReadResp              11157                       # Transaction distribution
system.membus.trans_dist::WritebackDirty        28252                       # Transaction distribution
system.membus.trans_dist::CleanEvict            10074                       # Transaction distribution
system.membus.trans_dist::ReadExReq             35803                       # Transaction distribution
system.membus.trans_dist::ReadExResp            35803                       # Transaction distribution
system.membus.trans_dist::ReadSharedReq         11157                       # Transaction distribution
system.membus.pkt_count_system.l2.mem_side_port::system.mem_ctrls.port       132246                       # Packet count per connected requestor and responder (bytes)
system.membus.pkt_count_system.l2.mem_side_port::total       132246                       # Packet count per connected requestor and responder (bytes)
system.membus.pkt_count::total                 132246                       # Packet count per connected requestor and responder (bytes)
system.membus.pkt_size_system.l2.mem_side_port::system.mem_ctrls.port      4813568                       # Cumulative packet size per connected requestor and responder (bytes)
system.membus.pkt_size_system.l2.mem_side_port::total      4813568                       # Cumulative packet size per connected requestor and responder (bytes)
system.membus.pkt_size::total                 4813568                       # Cumulative packet size per connected requestor and responder (bytes)
system.membus.snoops                                0                       # Total snoops (count)
system.membus.snoopTraffic                          0                       # Total snoop traffic (bytes)
system.membus.snoop_fanout::samples             46960                       # Request fanout histogram
system.membus.snoop_fanout::mean                    0                       # Request fanout histogram
system.membus.snoop_fanout::stdev                   0                       # Request fanout histogram
system.membus.snoop_fanout::underflows              0      0.00%      0.00% # Request fanout histogram
system.membus.snoop_fanout::0                   46960    100.00%    100.00% # Request fanout histogram
system.membus.snoop_fanout::1                       0      0.00%    100.00% # Request fanout histogram
system.membus.snoop_fanout::overflows               0      0.00%    100.00% # Request fanout histogram
system.membus.snoop_fanout::min_value               0                       # Request fanout histogram
system.membus.snoop_fanout::max_value               0                       # Request fanout histogram
system.membus.snoop_fanout::total               46960                       # Request fanout histogram
system.membus.power_state.pwrStateResidencyTicks::UNDEFINED   6165188500                       # Cumulative time (in ticks) in various power states
system.membus.reqLayer2.occupancy            49573500                       # Layer occupancy (ticks)
system.membus.reqLayer2.utilization               0.8                       # Layer utilization (%)
system.membus.respLayer1.occupancy           58700000                       # Layer occupancy (ticks)
system.membus.respLayer1.utilization              1.0                       # Layer utilization (%)
system.tol2bus.trans_dist::ReadResp             23132                       # Transaction distribution
system.tol2bus.trans_dist::WritebackDirty        69524                       # Transaction distribution
system.tol2bus.trans_dist::WritebackClean         1964                       # Transaction distribution
system.tol2bus.trans_dist::CleanEvict           26668                       # Transaction distribution
system.tol2bus.trans_dist::ReadExReq            36840                       # Transaction distribution
system.tol2bus.trans_dist::ReadExResp           36840                       # Transaction distribution
system.tol2bus.trans_dist::ReadCleanReq          2473                       # Transaction distribution
system.tol2bus.trans_dist::ReadSharedReq        20659                       # Transaction distribution
system.tol2bus.pkt_count_system.cpu.icache.mem_side_port::system.l2.cpu_side_port         6908                       # Packet count per connected requestor and responder (bytes)
system.tol2bus.pkt_count_system.cpu.dcache.mem_side_port::system.l2.cpu_side_port       171985                       # Packet count per connected requestor and responder (bytes)
system.tol2bus.pkt_count::total                178893                       # Packet count per connected requestor and responder (bytes)
system.tol2bus.pkt_size_system.cpu.icache.mem_side_port::system.l2.cpu_side_port       283840                       # Cumulative packet size per connected requestor and responder (bytes)
system.tol2bus.pkt_size_system.cpu.dcache.mem_side_port::system.l2.cpu_side_port      6321344                       # Cumulative packet size per connected requestor and responder (bytes)
system.tol2bus.pkt_size::total                6605184                       # Cumulative packet size per connected requestor and responder (bytes)
system.tol2bus.snoops                           39207                       # Total snoops (count)
system.tol2bus.snoopTraffic                   1808256                       # Total snoop traffic (bytes)
system.tol2bus.snoop_fanout::samples            99177                       # Request fanout histogram
system.tol2bus.snoop_fanout::mean            0.008974                       # Request fanout histogram
system.tol2bus.snoop_fanout::stdev           0.094305                       # Request fanout histogram
system.tol2bus.snoop_fanout::underflows             0      0.00%      0.00% # Request fanout histogram
system.tol2bus.snoop_fanout::0                  98287     99.10%     99.10% # Request fanout histogram
system.tol2bus.snoop_fanout::1                    890      0.90%    100.00% # Request fanout histogram
system.tol2bus.snoop_fanout::2                      0      0.00%    100.00% # Request fanout histogram
system.tol2bus.snoop_fanout::3                      0      0.00%    100.00% # Request fanout histogram
system.tol2bus.snoop_fanout::4                      0      0.00%    100.00% # Request fanout histogram
system.tol2bus.snoop_fanout::overflows              0      0.00%    100.00% # Request fanout histogram
system.tol2bus.snoop_fanout::min_value              0                       # Request fanout histogram
system.tol2bus.snoop_fanout::max_value              1                       # Request fanout histogram
system.tol2bus.snoop_fanout::total              99177                       # Request fanout histogram
system.tol2bus.power_state.pwrStateResidencyTicks::UNDEFINED   6165188500                       # Cumulative time (in ticks) in various power states
system.tol2bus.reqLayer0.occupancy          102697500                       # Layer occupancy (ticks)
system.tol2bus.reqLayer0.utilization              1.7                       # Layer utilization (%)
system.tol2bus.respLayer0.occupancy           3710498                       # Layer occupancy (ticks)
system.tol2bus.respLayer0.utilization             0.1                       # Layer utilization (%)
system.tol2bus.respLayer1.occupancy          86248500                       # Layer occupancy (ticks)
system.tol2bus.respLayer1.utilization             1.4                       # Layer utilization (%)
system.voltage_domain.voltage                       1                       # Voltage in Volts

---------- End Simulation Statistics   ----------
