
---------- Begin Simulation Statistics ----------
final_tick                                51566331000                       # Number of ticks from beginning of simulation (restored from checkpoints and never reset)
host_inst_rate                                  79111                       # Simulator instruction rate (inst/s)
host_mem_usage                                 717480                       # Number of bytes of host memory used
host_op_rate                                   131340                       # Simulator op (including micro ops) rate (op/s)
host_seconds                                  1264.05                       # Real time elapsed on the host
host_tick_rate                               40794690                       # Simulator tick rate (ticks/s)
sim_freq                                 1000000000000                       # Frequency of simulated ticks
sim_insts                                   100000001                       # Number of instructions simulated
sim_ops                                     166019455                       # Number of ops (including micro ops) simulated
sim_seconds                                  0.051566                       # Number of seconds simulated
sim_ticks                                 51566331000                       # Number of ticks simulated
system.cpu.cc_regfile_reads                  33785918                       # number of cc regfile reads
system.cpu.cc_regfile_writes                 73519076                       # number of cc regfile writes
system.cpu.committedInsts                   100000001                       # Number of Instructions Simulated
system.cpu.committedOps                     166019455                       # Number of Ops (including micro ops) Simulated
system.cpu.cpi                               1.031327                       # CPI: Cycles Per Instruction
system.cpu.cpi_total                         1.031327                       # CPI: Total CPI of All Threads
system.cpu.fp_regfile_reads                  47835093                       # number of floating regfile reads
system.cpu.fp_regfile_writes                 29607401                       # number of floating regfile writes
system.cpu.idleCycles                          195232                       # Total number of cycles that the CPU has spent unscheduled due to idling
system.cpu.iew.branchMispredicts                17004                       # Number of branch mispredicts detected at execute
system.cpu.iew.exec_branches                  5905672                       # Number of branches executed
system.cpu.iew.exec_nop                             0                       # number of nop insts executed
system.cpu.iew.exec_rate                     1.888665                       # Inst execution rate
system.cpu.iew.exec_refs                     54889860                       # number of memory reference insts executed
system.cpu.iew.exec_stores                   16872773                       # Number of stores executed
system.cpu.iew.exec_swp                             0                       # number of swp insts executed
system.cpu.iew.iewBlockCycles                18949348                       # Number of cycles IEW is blocking
system.cpu.iew.iewDispLoadInsts              38032301                       # Number of dispatched load instructions
system.cpu.iew.iewDispNonSpecInsts                257                       # Number of dispatched non-speculative instructions
system.cpu.iew.iewDispSquashedInsts              1274                       # Number of squashed instructions skipped by dispatch
system.cpu.iew.iewDispStoreInsts             17506035                       # Number of dispatched store instructions
system.cpu.iew.iewDispatchedInsts           195870680                       # Number of instructions dispatched to IQ
system.cpu.iew.iewExecLoadInsts              38017087                       # Number of load instructions executed
system.cpu.iew.iewExecSquashedInsts            123392                       # Number of squashed instructions skipped in execute
system.cpu.iew.iewExecutedInsts             194783083                       # Number of executed instructions
system.cpu.iew.iewIQFullEvents                  52165                       # Number of times the IQ has become full, causing a stall
system.cpu.iew.iewIdleCycles                        0                       # Number of cycles IEW is idle
system.cpu.iew.iewLSQFullEvents               3138618                       # Number of times the LSQ has become full, causing a stall
system.cpu.iew.iewSquashCycles                 294487                       # Number of cycles IEW is squashing
system.cpu.iew.iewUnblockCycles               3165565                       # Number of cycles IEW is unblocking
system.cpu.iew.memOrderViolationEvents            562                       # Number of memory order violations
system.cpu.iew.predictedNotTakenIncorrect         9589                       # Number of branches that were predicted not taken incorrectly
system.cpu.iew.predictedTakenIncorrect           7415                       # Number of branches that were predicted taken incorrectly
system.cpu.iew.wb_consumers                 257328826                       # num instructions consuming a value
system.cpu.iew.wb_count                     191317009                       # cumulative count of insts written-back
system.cpu.iew.wb_fanout                     0.570723                       # average fanout of values written-back
system.cpu.iew.wb_producers                 146863426                       # num instructions producing a value
system.cpu.iew.wb_rate                       1.855057                       # insts written-back per cycle
system.cpu.iew.wb_sent                      194576647                       # cumulative count of insts sent to commit
system.cpu.int_regfile_reads                321056689                       # number of integer regfile reads
system.cpu.int_regfile_writes               144542219                       # number of integer regfile writes
system.cpu.ipc                               0.969625                       # IPC: Instructions Per Cycle
system.cpu.ipc_total                         0.969625                       # IPC: Total IPC of All Threads
system.cpu.iq.FU_type_0::No_OpClass           4175934      2.14%      2.14% # Type of FU issued
system.cpu.iq.FU_type_0::IntAlu             111665953     57.29%     59.43% # Type of FU issued
system.cpu.iq.FU_type_0::IntMult              6313253      3.24%     62.67% # Type of FU issued
system.cpu.iq.FU_type_0::IntDiv                101049      0.05%     62.73% # Type of FU issued
system.cpu.iq.FU_type_0::FloatAdd             1448449      0.74%     63.47% # Type of FU issued
system.cpu.iq.FU_type_0::FloatCmp                   0      0.00%     63.47% # Type of FU issued
system.cpu.iq.FU_type_0::FloatCvt                  32      0.00%     63.47% # Type of FU issued
system.cpu.iq.FU_type_0::FloatMult                  0      0.00%     63.47% # Type of FU issued
system.cpu.iq.FU_type_0::FloatMultAcc               0      0.00%     63.47% # Type of FU issued
system.cpu.iq.FU_type_0::FloatDiv                   0      0.00%     63.47% # Type of FU issued
system.cpu.iq.FU_type_0::FloatMisc                  0      0.00%     63.47% # Type of FU issued
system.cpu.iq.FU_type_0::FloatSqrt                  0      0.00%     63.47% # Type of FU issued
system.cpu.iq.FU_type_0::SimdAdd                 3104      0.00%     63.47% # Type of FU issued
system.cpu.iq.FU_type_0::SimdAddAcc                 0      0.00%     63.47% # Type of FU issued
system.cpu.iq.FU_type_0::SimdAlu              2861918      1.47%     64.94% # Type of FU issued
system.cpu.iq.FU_type_0::SimdCmp                   72      0.00%     64.94% # Type of FU issued
system.cpu.iq.FU_type_0::SimdCvt                 7548      0.00%     64.94% # Type of FU issued
system.cpu.iq.FU_type_0::SimdMisc             2869659      1.47%     66.41% # Type of FU issued
system.cpu.iq.FU_type_0::SimdMult                 248      0.00%     66.42% # Type of FU issued
system.cpu.iq.FU_type_0::SimdMultAcc                0      0.00%     66.42% # Type of FU issued
system.cpu.iq.FU_type_0::SimdShift               1940      0.00%     66.42% # Type of FU issued
system.cpu.iq.FU_type_0::SimdShiftAcc               0      0.00%     66.42% # Type of FU issued
system.cpu.iq.FU_type_0::SimdDiv                    0      0.00%     66.42% # Type of FU issued
system.cpu.iq.FU_type_0::SimdSqrt                   0      0.00%     66.42% # Type of FU issued
system.cpu.iq.FU_type_0::SimdFloatAdd         4781103      2.45%     68.87% # Type of FU issued
system.cpu.iq.FU_type_0::SimdFloatAlu               0      0.00%     68.87% # Type of FU issued
system.cpu.iq.FU_type_0::SimdFloatCmp               0      0.00%     68.87% # Type of FU issued
system.cpu.iq.FU_type_0::SimdFloatCvt         2386460      1.22%     70.09% # Type of FU issued
system.cpu.iq.FU_type_0::SimdFloatDiv              17      0.00%     70.09% # Type of FU issued
system.cpu.iq.FU_type_0::SimdFloatMisc              0      0.00%     70.09% # Type of FU issued
system.cpu.iq.FU_type_0::SimdFloatMult        3347072      1.72%     71.81% # Type of FU issued
system.cpu.iq.FU_type_0::SimdFloatMultAcc            0      0.00%     71.81% # Type of FU issued
system.cpu.iq.FU_type_0::SimdFloatSqrt              0      0.00%     71.81% # Type of FU issued
system.cpu.iq.FU_type_0::SimdReduceAdd              0      0.00%     71.81% # Type of FU issued
system.cpu.iq.FU_type_0::SimdReduceAlu              0      0.00%     71.81% # Type of FU issued
system.cpu.iq.FU_type_0::SimdReduceCmp              0      0.00%     71.81% # Type of FU issued
system.cpu.iq.FU_type_0::SimdFloatReduceAdd            0      0.00%     71.81% # Type of FU issued
system.cpu.iq.FU_type_0::SimdFloatReduceCmp            0      0.00%     71.81% # Type of FU issued
system.cpu.iq.FU_type_0::SimdAes                    0      0.00%     71.81% # Type of FU issued
system.cpu.iq.FU_type_0::SimdAesMix                 0      0.00%     71.81% # Type of FU issued
system.cpu.iq.FU_type_0::SimdSha1Hash               0      0.00%     71.81% # Type of FU issued
system.cpu.iq.FU_type_0::SimdSha1Hash2              0      0.00%     71.81% # Type of FU issued
system.cpu.iq.FU_type_0::SimdSha256Hash             0      0.00%     71.81% # Type of FU issued
system.cpu.iq.FU_type_0::SimdSha256Hash2            0      0.00%     71.81% # Type of FU issued
system.cpu.iq.FU_type_0::SimdShaSigma2              0      0.00%     71.81% # Type of FU issued
system.cpu.iq.FU_type_0::SimdShaSigma3              0      0.00%     71.81% # Type of FU issued
system.cpu.iq.FU_type_0::SimdPredAlu                0      0.00%     71.81% # Type of FU issued
system.cpu.iq.FU_type_0::MemRead             26425694     13.56%     85.37% # Type of FU issued
system.cpu.iq.FU_type_0::MemWrite            10638759      5.46%     90.83% # Type of FU issued
system.cpu.iq.FU_type_0::FloatMemRead        11640362      5.97%     96.80% # Type of FU issued
system.cpu.iq.FU_type_0::FloatMemWrite        6237852      3.20%    100.00% # Type of FU issued
system.cpu.iq.FU_type_0::IprAccess                  0      0.00%    100.00% # Type of FU issued
system.cpu.iq.FU_type_0::InstPrefetch               0      0.00%    100.00% # Type of FU issued
system.cpu.iq.FU_type_0::total              194906478                       # Type of FU issued
system.cpu.iq.fp_alu_accesses                39370887                       # Number of floating point alu accesses
system.cpu.iq.fp_inst_queue_reads            76878123                       # Number of floating instruction queue reads
system.cpu.iq.fp_inst_queue_wakeup_accesses     37135956                       # Number of floating instruction queue wakeup accesses
system.cpu.iq.fp_inst_queue_writes           49834940                       # Number of floating instruction queue writes
system.cpu.iq.fu_busy_cnt                     3664361                       # FU busy when requested
system.cpu.iq.fu_busy_rate                   0.018801                       # FU busy rate (busy events/executed inst)
system.cpu.iq.fu_full::No_OpClass                   0      0.00%      0.00% # attempts to use FU when none available
system.cpu.iq.fu_full::IntAlu                  583649     15.93%     15.93% # attempts to use FU when none available
system.cpu.iq.fu_full::IntMult                      0      0.00%     15.93% # attempts to use FU when none available
system.cpu.iq.fu_full::IntDiv                       0      0.00%     15.93% # attempts to use FU when none available
system.cpu.iq.fu_full::FloatAdd                     0      0.00%     15.93% # attempts to use FU when none available
system.cpu.iq.fu_full::FloatCmp                     0      0.00%     15.93% # attempts to use FU when none available
system.cpu.iq.fu_full::FloatCvt                     0      0.00%     15.93% # attempts to use FU when none available
system.cpu.iq.fu_full::FloatMult                    0      0.00%     15.93% # attempts to use FU when none available
system.cpu.iq.fu_full::FloatMultAcc                 0      0.00%     15.93% # attempts to use FU when none available
system.cpu.iq.fu_full::FloatDiv                     0      0.00%     15.93% # attempts to use FU when none available
system.cpu.iq.fu_full::FloatMisc                    0      0.00%     15.93% # attempts to use FU when none available
system.cpu.iq.fu_full::FloatSqrt                    0      0.00%     15.93% # attempts to use FU when none available
system.cpu.iq.fu_full::SimdAdd                      0      0.00%     15.93% # attempts to use FU when none available
system.cpu.iq.fu_full::SimdAddAcc                   0      0.00%     15.93% # attempts to use FU when none available
system.cpu.iq.fu_full::SimdAlu                     63      0.00%     15.93% # attempts to use FU when none available
system.cpu.iq.fu_full::SimdCmp                      0      0.00%     15.93% # attempts to use FU when none available
system.cpu.iq.fu_full::SimdCvt                     30      0.00%     15.93% # attempts to use FU when none available
system.cpu.iq.fu_full::SimdMisc                    16      0.00%     15.93% # attempts to use FU when none available
system.cpu.iq.fu_full::SimdMult                     0      0.00%     15.93% # attempts to use FU when none available
system.cpu.iq.fu_full::SimdMultAcc                  0      0.00%     15.93% # attempts to use FU when none available
system.cpu.iq.fu_full::SimdShift                   51      0.00%     15.93% # attempts to use FU when none available
system.cpu.iq.fu_full::SimdShiftAcc                 0      0.00%     15.93% # attempts to use FU when none available
system.cpu.iq.fu_full::SimdDiv                      0      0.00%     15.93% # attempts to use FU when none available
system.cpu.iq.fu_full::SimdSqrt                     0      0.00%     15.93% # attempts to use FU when none available
system.cpu.iq.fu_full::SimdFloatAdd                22      0.00%     15.93% # attempts to use FU when none available
system.cpu.iq.fu_full::SimdFloatAlu                 0      0.00%     15.93% # attempts to use FU when none available
system.cpu.iq.fu_full::SimdFloatCmp                 0      0.00%     15.93% # attempts to use FU when none available
system.cpu.iq.fu_full::SimdFloatCvt                 0      0.00%     15.93% # attempts to use FU when none available
system.cpu.iq.fu_full::SimdFloatDiv                 0      0.00%     15.93% # attempts to use FU when none available
system.cpu.iq.fu_full::SimdFloatMisc                0      0.00%     15.93% # attempts to use FU when none available
system.cpu.iq.fu_full::SimdFloatMult                4      0.00%     15.93% # attempts to use FU when none available
system.cpu.iq.fu_full::SimdFloatMultAcc             0      0.00%     15.93% # attempts to use FU when none available
system.cpu.iq.fu_full::SimdFloatSqrt                0      0.00%     15.93% # attempts to use FU when none available
system.cpu.iq.fu_full::SimdReduceAdd                0      0.00%     15.93% # attempts to use FU when none available
system.cpu.iq.fu_full::SimdReduceAlu                0      0.00%     15.93% # attempts to use FU when none available
system.cpu.iq.fu_full::SimdReduceCmp                0      0.00%     15.93% # attempts to use FU when none available
system.cpu.iq.fu_full::SimdFloatReduceAdd            0      0.00%     15.93% # attempts to use FU when none available
system.cpu.iq.fu_full::SimdFloatReduceCmp            0      0.00%     15.93% # attempts to use FU when none available
system.cpu.iq.fu_full::SimdAes                      0      0.00%     15.93% # attempts to use FU when none available
system.cpu.iq.fu_full::SimdAesMix                   0      0.00%     15.93% # attempts to use FU when none available
system.cpu.iq.fu_full::SimdSha1Hash                 0      0.00%     15.93% # attempts to use FU when none available
system.cpu.iq.fu_full::SimdSha1Hash2                0      0.00%     15.93% # attempts to use FU when none available
system.cpu.iq.fu_full::SimdSha256Hash               0      0.00%     15.93% # attempts to use FU when none available
system.cpu.iq.fu_full::SimdSha256Hash2              0      0.00%     15.93% # attempts to use FU when none available
system.cpu.iq.fu_full::SimdShaSigma2                0      0.00%     15.93% # attempts to use FU when none available
system.cpu.iq.fu_full::SimdShaSigma3                0      0.00%     15.93% # attempts to use FU when none available
system.cpu.iq.fu_full::SimdPredAlu                  0      0.00%     15.93% # attempts to use FU when none available
system.cpu.iq.fu_full::MemRead                 410973     11.22%     27.15% # attempts to use FU when none available
system.cpu.iq.fu_full::MemWrite                789259     21.54%     48.69% # attempts to use FU when none available
system.cpu.iq.fu_full::FloatMemRead           1632851     44.56%     93.25% # attempts to use FU when none available
system.cpu.iq.fu_full::FloatMemWrite           247443      6.75%    100.00% # attempts to use FU when none available
system.cpu.iq.fu_full::IprAccess                    0      0.00%    100.00% # attempts to use FU when none available
system.cpu.iq.fu_full::InstPrefetch                 0      0.00%    100.00% # attempts to use FU when none available
system.cpu.iq.int_alu_accesses              155024018                       # Number of integer alu accesses
system.cpu.iq.int_inst_queue_reads          419555447                       # Number of integer instruction queue reads
system.cpu.iq.int_inst_queue_wakeup_accesses    154181053                       # Number of integer instruction queue wakeup accesses
system.cpu.iq.int_inst_queue_writes         175887440                       # Number of integer instruction queue writes
system.cpu.iq.iqInstsAdded                  195808596                       # Number of instructions added to the IQ (excludes non-spec)
system.cpu.iq.iqInstsIssued                 194906478                       # Number of instructions issued
system.cpu.iq.iqNonSpecInstsAdded               62084                       # Number of non-speculative instructions added to the IQ
system.cpu.iq.iqSquashedInstsExamined        29851147                       # Number of squashed instructions iterated over during squash; mainly for profiling
system.cpu.iq.iqSquashedInstsIssued             18825                       # Number of squashed instructions issued
system.cpu.iq.iqSquashedNonSpecRemoved          56695                       # Number of squashed non-spec instructions that were removed
system.cpu.iq.iqSquashedOperandsExamined      5178158                       # Number of squashed operands that are examined and possibly removed from graph
system.cpu.iq.issued_per_cycle::samples     102937431                       # Number of insts issued each cycle
system.cpu.iq.issued_per_cycle::mean         1.893446                       # Number of insts issued each cycle
system.cpu.iq.issued_per_cycle::stdev        2.152173                       # Number of insts issued each cycle
system.cpu.iq.issued_per_cycle::underflows            0      0.00%      0.00% # Number of insts issued each cycle
system.cpu.iq.issued_per_cycle::0            44457542     43.19%     43.19% # Number of insts issued each cycle
system.cpu.iq.issued_per_cycle::1             9851143      9.57%     52.76% # Number of insts issued each cycle
system.cpu.iq.issued_per_cycle::2            13116512     12.74%     65.50% # Number of insts issued each cycle
system.cpu.iq.issued_per_cycle::3            11243531     10.92%     76.42% # Number of insts issued each cycle
system.cpu.iq.issued_per_cycle::4             9947552      9.66%     86.09% # Number of insts issued each cycle
system.cpu.iq.issued_per_cycle::5             6328956      6.15%     92.24% # Number of insts issued each cycle
system.cpu.iq.issued_per_cycle::6             3826858      3.72%     95.95% # Number of insts issued each cycle
system.cpu.iq.issued_per_cycle::7             2627114      2.55%     98.51% # Number of insts issued each cycle
system.cpu.iq.issued_per_cycle::8             1538223      1.49%    100.00% # Number of insts issued each cycle
system.cpu.iq.issued_per_cycle::overflows            0      0.00%    100.00% # Number of insts issued each cycle
system.cpu.iq.issued_per_cycle::min_value            0                       # Number of insts issued each cycle
system.cpu.iq.issued_per_cycle::max_value            8                       # Number of insts issued each cycle
system.cpu.iq.issued_per_cycle::total       102937431                       # Number of insts issued each cycle
system.cpu.iq.rate                           1.889862                       # Inst issue rate
system.cpu.iq.vec_alu_accesses                      0                       # Number of vector alu accesses
system.cpu.iq.vec_inst_queue_reads                  0                       # Number of vector instruction queue reads
system.cpu.iq.vec_inst_queue_wakeup_accesses            0                       # Number of vector instruction queue wakeup accesses
system.cpu.iq.vec_inst_queue_writes                 0                       # Number of vector instruction queue writes
system.cpu.memDep0.conflictingLoads           2212450                       # Number of conflicting loads.
system.cpu.memDep0.conflictingStores          1639911                       # Number of conflicting stores.
system.cpu.memDep0.insertedLoads             38032301                       # Number of loads inserted to the mem dependence unit.
system.cpu.memDep0.insertedStores            17506035                       # Number of stores inserted to the mem dependence unit.
system.cpu.misc_regfile_reads                70463764                       # number of misc regfile reads
system.cpu.misc_regfile_writes                     18                       # number of misc regfile writes
system.cpu.numCycles                        103132663                       # number of cpu cycles simulated
system.cpu.numWorkItemsCompleted                    0                       # number of work items this cpu completed
system.cpu.numWorkItemsStarted                      0                       # number of work items this cpu started
system.cpu.timesIdled                            2163                       # Number of times that the entire CPU went into an idle state and unscheduled itself
system.cpu.workload.numSyscalls                   121                       # Number of system calls
system.membus.snoop_filter.hit_multi_requests            0                       # Number of requests hitting in the snoop filter with multiple (>1) holders of the requested data.
system.membus.snoop_filter.hit_multi_snoops            0                       # Number of snoops hitting in the snoop filter with multiple (>1) holders of the requested data.
system.membus.snoop_filter.hit_single_requests       378965                       # Number of requests hitting in the snoop filter with a single holder of the requested data.
system.membus.snoop_filter.hit_single_snoops            0                       # Number of snoops hitting in the snoop filter with a single holder of the requested data.
system.membus.snoop_filter.tot_requests        766639                       # Total number of requests made to the snoop filter.
system.membus.snoop_filter.tot_snoops               0                       # Total number of snoops made to the snoop filter.
system.tol2bus.snoop_filter.hit_multi_requests            8                       # Number of requests hitting in the snoop filter with multiple (>1) holders of the requested data.
system.tol2bus.snoop_filter.hit_multi_snoops            0                       # Number of snoops hitting in the snoop filter with multiple (>1) holders of the requested data.
system.tol2bus.snoop_filter.hit_single_requests       425092                       # Number of requests hitting in the snoop filter with a single holder of the requested data.
system.tol2bus.snoop_filter.hit_single_snoops         1226                       # Number of snoops hitting in the snoop filter with a single holder of the requested data.
system.tol2bus.snoop_filter.tot_requests       851211                       # Total number of requests made to the snoop filter.
system.tol2bus.snoop_filter.tot_snoops           1226                       # Total number of snoops made to the snoop filter.
system.clk_domain.clock                           250                       # Clock period in ticks
system.cpu.branchPred.lookups                 6475285                       # Number of BP lookups
system.cpu.branchPred.condPredicted           4661383                       # Number of conditional branches predicted
system.cpu.branchPred.condIncorrect             15370                       # Number of conditional branches incorrect
system.cpu.branchPred.BTBLookups              3410799                       # Number of BTB lookups
system.cpu.branchPred.BTBHits                 3400201                       # Number of BTB hits
system.cpu.branchPred.BTBHitPct             99.689281                       # BTB Hit Percentage
system.cpu.branchPred.RASUsed                  612061                       # Number of times the RAS was used to get a target.
system.cpu.branchPred.RASIncorrect                 17                       # Number of incorrect RAS predictions.
system.cpu.branchPred.indirectLookups          591410                       # Number of indirect predictor lookups.
system.cpu.branchPred.indirectHits             582895                       # Number of indirect target hits.
system.cpu.branchPred.indirectMisses             8515                       # Number of indirect misses.
system.cpu.branchPred.indirectMispredicted         1421                       # Number of mispredicted indirect branches.
system.cpu.commit.commitSquashedInsts        24316955                       # The number of squashed insts skipped by commit
system.cpu.commit.commitNonSpecStalls            5389                       # The number of times commit has been forced to stall to communicate backwards
system.cpu.commit.branchMispredicts             14415                       # The number of times a branch was mispredicted
system.cpu.commit.numCommittedDist::samples     99723632                       # Number of insts commited each cycle
system.cpu.commit.numCommittedDist::mean     1.664796                       # Number of insts commited each cycle
system.cpu.commit.numCommittedDist::stdev     2.564832                       # Number of insts commited each cycle
system.cpu.commit.numCommittedDist::underflows            0      0.00%      0.00% # Number of insts commited each cycle
system.cpu.commit.numCommittedDist::0        50402045     50.54%     50.54% # Number of insts commited each cycle
system.cpu.commit.numCommittedDist::1        19831743     19.89%     70.43% # Number of insts commited each cycle
system.cpu.commit.numCommittedDist::2         8597198      8.62%     79.05% # Number of insts commited each cycle
system.cpu.commit.numCommittedDist::3         3111078      3.12%     82.17% # Number of insts commited each cycle
system.cpu.commit.numCommittedDist::4         3150411      3.16%     85.33% # Number of insts commited each cycle
system.cpu.commit.numCommittedDist::5         1807885      1.81%     87.14% # Number of insts commited each cycle
system.cpu.commit.numCommittedDist::6         1200506      1.20%     88.35% # Number of insts commited each cycle
system.cpu.commit.numCommittedDist::7         2166151      2.17%     90.52% # Number of insts commited each cycle
system.cpu.commit.numCommittedDist::8         9456615      9.48%    100.00% # Number of insts commited each cycle
system.cpu.commit.numCommittedDist::overflows            0      0.00%    100.00% # Number of insts commited each cycle
system.cpu.commit.numCommittedDist::min_value            0                       # Number of insts commited each cycle
system.cpu.commit.numCommittedDist::max_value            8                       # Number of insts commited each cycle
system.cpu.commit.numCommittedDist::total     99723632                       # Number of insts commited each cycle
system.cpu.commit.instsCommitted            100000001                       # Number of instructions committed
system.cpu.commit.opsCommitted              166019455                       # Number of ops (including micro ops) committed
system.cpu.commit.memRefs                    39264133                       # Number of memory references committed
system.cpu.commit.loads                      30740931                       # Number of loads committed
system.cpu.commit.amos                              0                       # Number of atomic instructions committed
system.cpu.commit.membars                         176                       # Number of memory barriers committed
system.cpu.commit.branches                    4827028                       # Number of branches committed
system.cpu.commit.vector                            0                       # Number of committed Vector instructions.
system.cpu.commit.floating                   26165588                       # Number of committed floating point instructions.
system.cpu.commit.integer                   148225635                       # Number of committed integer instructions.
system.cpu.commit.functionCalls                531272                       # Number of function calls committed.
system.cpu.commit.committedInstType_0::No_OpClass      1046605      0.63%      0.63% # Class of committed instruction
system.cpu.commit.committedInstType_0::IntAlu    101615079     61.21%     61.84% # Class of committed instruction
system.cpu.commit.committedInstType_0::IntMult      6312256      3.80%     65.64% # Class of committed instruction
system.cpu.commit.committedInstType_0::IntDiv        97655      0.06%     65.70% # Class of committed instruction
system.cpu.commit.committedInstType_0::FloatAdd      1445015      0.87%     66.57% # Class of committed instruction
system.cpu.commit.committedInstType_0::FloatCmp            0      0.00%     66.57% # Class of committed instruction
system.cpu.commit.committedInstType_0::FloatCvt           32      0.00%     66.57% # Class of committed instruction
system.cpu.commit.committedInstType_0::FloatMult            0      0.00%     66.57% # Class of committed instruction
system.cpu.commit.committedInstType_0::FloatMultAcc            0      0.00%     66.57% # Class of committed instruction
system.cpu.commit.committedInstType_0::FloatDiv            0      0.00%     66.57% # Class of committed instruction
system.cpu.commit.committedInstType_0::FloatMisc            0      0.00%     66.57% # Class of committed instruction
system.cpu.commit.committedInstType_0::FloatSqrt            0      0.00%     66.57% # Class of committed instruction
system.cpu.commit.committedInstType_0::SimdAdd         2294      0.00%     66.57% # Class of committed instruction
system.cpu.commit.committedInstType_0::SimdAddAcc            0      0.00%     66.57% # Class of committed instruction
system.cpu.commit.committedInstType_0::SimdAlu      2855490      1.72%     68.29% # Class of committed instruction
system.cpu.commit.committedInstType_0::SimdCmp           66      0.00%     68.29% # Class of committed instruction
system.cpu.commit.committedInstType_0::SimdCvt         5352      0.00%     68.29% # Class of committed instruction
system.cpu.commit.committedInstType_0::SimdMisc      2865770      1.73%     70.02% # Class of committed instruction
system.cpu.commit.committedInstType_0::SimdMult          248      0.00%     70.02% # Class of committed instruction
system.cpu.commit.committedInstType_0::SimdMultAcc            0      0.00%     70.02% # Class of committed instruction
system.cpu.commit.committedInstType_0::SimdShift          900      0.00%     70.02% # Class of committed instruction
system.cpu.commit.committedInstType_0::SimdShiftAcc            0      0.00%     70.02% # Class of committed instruction
system.cpu.commit.committedInstType_0::SimdDiv            0      0.00%     70.02% # Class of committed instruction
system.cpu.commit.committedInstType_0::SimdSqrt            0      0.00%     70.02% # Class of committed instruction
system.cpu.commit.committedInstType_0::SimdFloatAdd      4779154      2.88%     72.90% # Class of committed instruction
system.cpu.commit.committedInstType_0::SimdFloatAlu            0      0.00%     72.90% # Class of committed instruction
system.cpu.commit.committedInstType_0::SimdFloatCmp            0      0.00%     72.90% # Class of committed instruction
system.cpu.commit.committedInstType_0::SimdFloatCvt      2384878      1.44%     74.34% # Class of committed instruction
system.cpu.commit.committedInstType_0::SimdFloatDiv           15      0.00%     74.34% # Class of committed instruction
system.cpu.commit.committedInstType_0::SimdFloatMisc            0      0.00%     74.34% # Class of committed instruction
system.cpu.commit.committedInstType_0::SimdFloatMult      3344513      2.01%     76.35% # Class of committed instruction
system.cpu.commit.committedInstType_0::SimdFloatMultAcc            0      0.00%     76.35% # Class of committed instruction
system.cpu.commit.committedInstType_0::SimdFloatSqrt            0      0.00%     76.35% # Class of committed instruction
system.cpu.commit.committedInstType_0::SimdReduceAdd            0      0.00%     76.35% # Class of committed instruction
system.cpu.commit.committedInstType_0::SimdReduceAlu            0      0.00%     76.35% # Class of committed instruction
system.cpu.commit.committedInstType_0::SimdReduceCmp            0      0.00%     76.35% # Class of committed instruction
system.cpu.commit.committedInstType_0::SimdFloatReduceAdd            0      0.00%     76.35% # Class of committed instruction
system.cpu.commit.committedInstType_0::SimdFloatReduceCmp            0      0.00%     76.35% # Class of committed instruction
system.cpu.commit.committedInstType_0::SimdAes            0      0.00%     76.35% # Class of committed instruction
system.cpu.commit.committedInstType_0::SimdAesMix            0      0.00%     76.35% # Class of committed instruction
system.cpu.commit.committedInstType_0::SimdSha1Hash            0      0.00%     76.35% # Class of committed instruction
system.cpu.commit.committedInstType_0::SimdSha1Hash2            0      0.00%     76.35% # Class of committed instruction
system.cpu.commit.committedInstType_0::SimdSha256Hash            0      0.00%     76.35% # Class of committed instruction
system.cpu.commit.committedInstType_0::SimdSha256Hash2            0      0.00%     76.35% # Class of committed instruction
system.cpu.commit.committedInstType_0::SimdShaSigma2            0      0.00%     76.35% # Class of committed instruction
system.cpu.commit.committedInstType_0::SimdShaSigma3            0      0.00%     76.35% # Class of committed instruction
system.cpu.commit.committedInstType_0::SimdPredAlu            0      0.00%     76.35% # Class of committed instruction
system.cpu.commit.committedInstType_0::MemRead     24849866     14.97%     91.32% # Class of committed instruction
system.cpu.commit.committedInstType_0::MemWrite      7834725      4.72%     96.04% # Class of committed instruction
system.cpu.commit.committedInstType_0::FloatMemRead      5891065      3.55%     99.59% # Class of committed instruction
system.cpu.commit.committedInstType_0::FloatMemWrite       688477      0.41%    100.00% # Class of committed instruction
system.cpu.commit.committedInstType_0::IprAccess            0      0.00%    100.00% # Class of committed instruction
system.cpu.commit.committedInstType_0::InstPrefetch            0      0.00%    100.00% # Class of committed instruction
system.cpu.commit.committedInstType_0::total    166019455                       # Class of committed instruction
system.cpu.commit.commitEligibleSamples       9456615                       # number cycles where commit BW limit reached
system.cpu.dcache.demand_hits::.cpu.data     42466251                       # number of demand (read+write) hits
system.cpu.dcache.demand_hits::total         42466251                       # number of demand (read+write) hits
system.cpu.dcache.overall_hits::.cpu.data     43804186                       # number of overall hits
system.cpu.dcache.overall_hits::total        43804186                       # number of overall hits
system.cpu.dcache.demand_misses::.cpu.data       529652                       # number of demand (read+write) misses
system.cpu.dcache.demand_misses::total         529652                       # number of demand (read+write) misses
system.cpu.dcache.overall_misses::.cpu.data       683966                       # number of overall misses
system.cpu.dcache.overall_misses::total        683966                       # number of overall misses
system.cpu.dcache.demand_miss_latency::.cpu.data  34347073945                       # number of demand (read+write) miss cycles
system.cpu.dcache.demand_miss_latency::total  34347073945                       # number of demand (read+write) miss cycles
system.cpu.dcache.overall_miss_latency::.cpu.data  34347073945                       # number of overall miss cycles
system.cpu.dcache.overall_miss_latency::total  34347073945                       # number of overall miss cycles
system.cpu.dcache.demand_accesses::.cpu.data     42995903                       # number of demand (read+write) accesses
system.cpu.dcache.demand_accesses::total     42995903                       # number of demand (read+write) accesses
system.cpu.dcache.overall_accesses::.cpu.data     44488152                       # number of overall (read+write) accesses
system.cpu.dcache.overall_accesses::total     44488152                       # number of overall (read+write) accesses
system.cpu.dcache.demand_miss_rate::.cpu.data     0.012319                       # miss rate for demand accesses
system.cpu.dcache.demand_miss_rate::total     0.012319                       # miss rate for demand accesses
system.cpu.dcache.overall_miss_rate::.cpu.data     0.015374                       # miss rate for overall accesses
system.cpu.dcache.overall_miss_rate::total     0.015374                       # miss rate for overall accesses
system.cpu.dcache.demand_avg_miss_latency::.cpu.data 64848.379587                       # average overall miss latency
system.cpu.dcache.demand_avg_miss_latency::total 64848.379587                       # average overall miss latency
system.cpu.dcache.overall_avg_miss_latency::.cpu.data 50217.516580                       # average overall miss latency
system.cpu.dcache.overall_avg_miss_latency::total 50217.516580                       # average overall miss latency
system.cpu.dcache.blocked_cycles::no_mshrs       483636                       # number of cycles access was blocked
system.cpu.dcache.blocked_cycles::no_targets          299                       # number of cycles access was blocked
system.cpu.dcache.blocked::no_mshrs              8690                       # number of cycles access was blocked
system.cpu.dcache.blocked::no_targets               3                       # number of cycles access was blocked
system.cpu.dcache.avg_blocked_cycles::no_mshrs    55.654315                       # average number of cycles each access was blocked
system.cpu.dcache.avg_blocked_cycles::no_targets    99.666667                       # average number of cycles each access was blocked
system.cpu.dcache.writebacks::.writebacks       172380                       # number of writebacks
system.cpu.dcache.writebacks::total            172380                       # number of writebacks
system.cpu.dcache.demand_mshr_hits::.cpu.data       164159                       # number of demand (read+write) MSHR hits
system.cpu.dcache.demand_mshr_hits::total       164159                       # number of demand (read+write) MSHR hits
system.cpu.dcache.overall_mshr_hits::.cpu.data       164159                       # number of overall MSHR hits
system.cpu.dcache.overall_mshr_hits::total       164159                       # number of overall MSHR hits
system.cpu.dcache.demand_mshr_misses::.cpu.data       365493                       # number of demand (read+write) MSHR misses
system.cpu.dcache.demand_mshr_misses::total       365493                       # number of demand (read+write) MSHR misses
system.cpu.dcache.overall_mshr_misses::.cpu.data       422411                       # number of overall MSHR misses
system.cpu.dcache.overall_mshr_misses::total       422411                       # number of overall MSHR misses
system.cpu.dcache.demand_mshr_miss_latency::.cpu.data  24230831446                       # number of demand (read+write) MSHR miss cycles
system.cpu.dcache.demand_mshr_miss_latency::total  24230831446                       # number of demand (read+write) MSHR miss cycles
system.cpu.dcache.overall_mshr_miss_latency::.cpu.data  28508707946                       # number of overall MSHR miss cycles
system.cpu.dcache.overall_mshr_miss_latency::total  28508707946                       # number of overall MSHR miss cycles
system.cpu.dcache.demand_mshr_miss_rate::.cpu.data     0.008501                       # mshr miss rate for demand accesses
system.cpu.dcache.demand_mshr_miss_rate::total     0.008501                       # mshr miss rate for demand accesses
system.cpu.dcache.overall_mshr_miss_rate::.cpu.data     0.009495                       # mshr miss rate for overall accesses
system.cpu.dcache.overall_mshr_miss_rate::total     0.009495                       # mshr miss rate for overall accesses
system.cpu.dcache.demand_avg_mshr_miss_latency::.cpu.data 66296.294173                       # average overall mshr miss latency
system.cpu.dcache.demand_avg_mshr_miss_latency::total 66296.294173                       # average overall mshr miss latency
system.cpu.dcache.overall_avg_mshr_miss_latency::.cpu.data 67490.448748                       # average overall mshr miss latency
system.cpu.dcache.overall_avg_mshr_miss_latency::total 67490.448748                       # average overall mshr miss latency
system.cpu.dcache.replacements                 421898                       # number of replacements
system.cpu.dcache.ReadReq_hits::.cpu.data     34110810                       # number of ReadReq hits
system.cpu.dcache.ReadReq_hits::total        34110810                       # number of ReadReq hits
system.cpu.dcache.ReadReq_misses::.cpu.data       361809                       # number of ReadReq misses
system.cpu.dcache.ReadReq_misses::total        361809                       # number of ReadReq misses
system.cpu.dcache.ReadReq_miss_latency::.cpu.data  22007695000                       # number of ReadReq miss cycles
system.cpu.dcache.ReadReq_miss_latency::total  22007695000                       # number of ReadReq miss cycles
system.cpu.dcache.ReadReq_accesses::.cpu.data     34472619                       # number of ReadReq accesses(hits+misses)
system.cpu.dcache.ReadReq_accesses::total     34472619                       # number of ReadReq accesses(hits+misses)
system.cpu.dcache.ReadReq_miss_rate::.cpu.data     0.010496                       # miss rate for ReadReq accesses
system.cpu.dcache.ReadReq_miss_rate::total     0.010496                       # miss rate for ReadReq accesses
system.cpu.dcache.ReadReq_avg_miss_latency::.cpu.data 60826.831284                       # average ReadReq miss latency
system.cpu.dcache.ReadReq_avg_miss_latency::total 60826.831284                       # average ReadReq miss latency
system.cpu.dcache.ReadReq_mshr_hits::.cpu.data       164145                       # number of ReadReq MSHR hits
system.cpu.dcache.ReadReq_mshr_hits::total       164145                       # number of ReadReq MSHR hits
system.cpu.dcache.ReadReq_mshr_misses::.cpu.data       197664                       # number of ReadReq MSHR misses
system.cpu.dcache.ReadReq_mshr_misses::total       197664                       # number of ReadReq MSHR misses
system.cpu.dcache.ReadReq_mshr_miss_latency::.cpu.data  12059830500                       # number of ReadReq MSHR miss cycles
system.cpu.dcache.ReadReq_mshr_miss_latency::total  12059830500                       # number of ReadReq MSHR miss cycles
system.cpu.dcache.ReadReq_mshr_miss_rate::.cpu.data     0.005734                       # mshr miss rate for ReadReq accesses
system.cpu.dcache.ReadReq_mshr_miss_rate::total     0.005734                       # mshr miss rate for ReadReq accesses
system.cpu.dcache.ReadReq_avg_mshr_miss_latency::.cpu.data 61011.769973                       # average ReadReq mshr miss latency
system.cpu.dcache.ReadReq_avg_mshr_miss_latency::total 61011.769973                       # average ReadReq mshr miss latency
system.cpu.dcache.WriteReq_hits::.cpu.data      8355441                       # number of WriteReq hits
system.cpu.dcache.WriteReq_hits::total        8355441                       # number of WriteReq hits
system.cpu.dcache.WriteReq_misses::.cpu.data       167843                       # number of WriteReq misses
system.cpu.dcache.WriteReq_misses::total       167843                       # number of WriteReq misses
system.cpu.dcache.WriteReq_miss_latency::.cpu.data  12339378945                       # number of WriteReq miss cycles
system.cpu.dcache.WriteReq_miss_latency::total  12339378945                       # number of WriteReq miss cycles
system.cpu.dcache.WriteReq_accesses::.cpu.data      8523284                       # number of WriteReq accesses(hits+misses)
system.cpu.dcache.WriteReq_accesses::total      8523284                       # number of WriteReq accesses(hits+misses)
system.cpu.dcache.WriteReq_miss_rate::.cpu.data     0.019692                       # miss rate for WriteReq accesses
system.cpu.dcache.WriteReq_miss_rate::total     0.019692                       # miss rate for WriteReq accesses
system.cpu.dcache.WriteReq_avg_miss_latency::.cpu.data 73517.387946                       # average WriteReq miss latency
system.cpu.dcache.WriteReq_avg_miss_latency::total 73517.387946                       # average WriteReq miss latency
system.cpu.dcache.WriteReq_mshr_hits::.cpu.data           14                       # number of WriteReq MSHR hits
system.cpu.dcache.WriteReq_mshr_hits::total           14                       # number of WriteReq MSHR hits
system.cpu.dcache.WriteReq_mshr_misses::.cpu.data       167829                       # number of WriteReq MSHR misses
system.cpu.dcache.WriteReq_mshr_misses::total       167829                       # number of WriteReq MSHR misses
system.cpu.dcache.WriteReq_mshr_miss_latency::.cpu.data  12171000946                       # number of WriteReq MSHR miss cycles
system.cpu.dcache.WriteReq_mshr_miss_latency::total  12171000946                       # number of WriteReq MSHR miss cycles
system.cpu.dcache.WriteReq_mshr_miss_rate::.cpu.data     0.019691                       # mshr miss rate for WriteReq accesses
system.cpu.dcache.WriteReq_mshr_miss_rate::total     0.019691                       # mshr miss rate for WriteReq accesses
system.cpu.dcache.WriteReq_avg_mshr_miss_latency::.cpu.data 72520.249456                       # average WriteReq mshr miss latency
system.cpu.dcache.WriteReq_avg_mshr_miss_latency::total 72520.249456                       # average WriteReq mshr miss latency
system.cpu.dcache.SoftPFReq_hits::.cpu.data      1337935                       # number of SoftPFReq hits
system.cpu.dcache.SoftPFReq_hits::total       1337935                       # number of SoftPFReq hits
system.cpu.dcache.SoftPFReq_misses::.cpu.data       154314                       # number of SoftPFReq misses
system.cpu.dcache.SoftPFReq_misses::total       154314                       # number of SoftPFReq misses
system.cpu.dcache.SoftPFReq_accesses::.cpu.data      1492249                       # number of SoftPFReq accesses(hits+misses)
system.cpu.dcache.SoftPFReq_accesses::total      1492249                       # number of SoftPFReq accesses(hits+misses)
system.cpu.dcache.SoftPFReq_miss_rate::.cpu.data     0.103410                       # miss rate for SoftPFReq accesses
system.cpu.dcache.SoftPFReq_miss_rate::total     0.103410                       # miss rate for SoftPFReq accesses
system.cpu.dcache.SoftPFReq_mshr_misses::.cpu.data        56918                       # number of SoftPFReq MSHR misses
system.cpu.dcache.SoftPFReq_mshr_misses::total        56918                       # number of SoftPFReq MSHR misses
system.cpu.dcache.SoftPFReq_mshr_miss_latency::.cpu.data   4277876500                       # number of SoftPFReq MSHR miss cycles
system.cpu.dcache.SoftPFReq_mshr_miss_latency::total   4277876500                       # number of SoftPFReq MSHR miss cycles
system.cpu.dcache.SoftPFReq_mshr_miss_rate::.cpu.data     0.038142                       # mshr miss rate for SoftPFReq accesses
system.cpu.dcache.SoftPFReq_mshr_miss_rate::total     0.038142                       # mshr miss rate for SoftPFReq accesses
system.cpu.dcache.SoftPFReq_avg_mshr_miss_latency::.cpu.data 75158.587793                       # average SoftPFReq mshr miss latency
system.cpu.dcache.SoftPFReq_avg_mshr_miss_latency::total 75158.587793                       # average SoftPFReq mshr miss latency
system.cpu.dcache.power_state.pwrStateResidencyTicks::UNDEFINED  51566331000                       # Cumulative time (in ticks) in various power states
system.cpu.dcache.tags.tagsinuse           511.692074                       # Cycle average of tags in use
system.cpu.dcache.tags.total_refs            44226598                       # Total number of references to valid blocks.
system.cpu.dcache.tags.sampled_refs            422410                       # Sample count of references to valid blocks.
system.cpu.dcache.tags.avg_refs            104.700642                       # Average number of references to valid blocks.
system.cpu.dcache.tags.warmup_cycle            163000                       # Cycle when the warmup percentage was hit.
system.cpu.dcache.tags.occ_blocks::.cpu.data   511.692074                       # Average occupied blocks per requestor
system.cpu.dcache.tags.occ_percent::.cpu.data     0.999399                       # Average percentage of cache occupancy
system.cpu.dcache.tags.occ_percent::total     0.999399                       # Average percentage of cache occupancy
system.cpu.dcache.tags.occ_task_id_blocks::1024          512                       # Occupied blocks per task id
system.cpu.dcache.tags.age_task_id_blocks_1024::0           57                       # Occupied blocks per task id
system.cpu.dcache.tags.age_task_id_blocks_1024::1          355                       # Occupied blocks per task id
system.cpu.dcache.tags.age_task_id_blocks_1024::2           93                       # Occupied blocks per task id
system.cpu.dcache.tags.age_task_id_blocks_1024::3            7                       # Occupied blocks per task id
system.cpu.dcache.tags.occ_task_id_percent::1024            1                       # Percentage of cache occupancy per task id
system.cpu.dcache.tags.tag_accesses          89398714                       # Number of tag accesses
system.cpu.dcache.tags.data_accesses         89398714                       # Number of data accesses
system.cpu.dcache.tags.power_state.pwrStateResidencyTicks::UNDEFINED  51566331000                       # Cumulative time (in ticks) in various power states
system.cpu.decode.idleCycles                  7691194                       # Number of cycles decode is idle
system.cpu.decode.blockedCycles              69348020                       # Number of cycles decode is blocked
system.cpu.decode.runCycles                  10914285                       # Number of cycles decode is running
system.cpu.decode.unblockCycles              14689445                       # Number of cycles decode is unblocking
system.cpu.decode.squashCycles                 294487                       # Number of cycles decode is squashing
system.cpu.decode.branchResolved              3074101                       # Number of times decode resolved a  branch
system.cpu.decode.branchMispred                  1691                       # Number of times decode detected a branch misprediction
system.cpu.decode.decodedInsts              198311719                       # Number of instructions handled by decode
system.cpu.decode.squashedInsts                  7844                       # Number of squashed instructions handled by decode
system.cpu.dtb.rdAccesses                    37962668                       # TLB accesses on read requests
system.cpu.dtb.wrAccesses                    16872864                       # TLB accesses on write requests
system.cpu.dtb.rdMisses                          5592                       # TLB misses on read requests
system.cpu.dtb.wrMisses                        188443                       # TLB misses on write requests
system.cpu.dtb.walker.power_state.pwrStateResidencyTicks::UNDEFINED  51566331000                       # Cumulative time (in ticks) in various power states
system.cpu.dtb_walker_cache.blocked_cycles::no_mshrs            0                       # number of cycles access was blocked
system.cpu.dtb_walker_cache.blocked_cycles::no_targets            0                       # number of cycles access was blocked
system.cpu.dtb_walker_cache.blocked::no_mshrs            0                       # number of cycles access was blocked
system.cpu.dtb_walker_cache.blocked::no_targets            0                       # number of cycles access was blocked
system.cpu.dtb_walker_cache.avg_blocked_cycles::no_mshrs          nan                       # average number of cycles each access was blocked
system.cpu.dtb_walker_cache.avg_blocked_cycles::no_targets          nan                       # average number of cycles each access was blocked
system.cpu.dtb_walker_cache.replacements            0                       # number of replacements
system.cpu.dtb_walker_cache.power_state.pwrStateResidencyTicks::UNDEFINED  51566331000                       # Cumulative time (in ticks) in various power states
system.cpu.dtb_walker_cache.tags.tagsinuse            0                       # Cycle average of tags in use
system.cpu.dtb_walker_cache.tags.total_refs            0                       # Total number of references to valid blocks.
system.cpu.dtb_walker_cache.tags.sampled_refs            0                       # Sample count of references to valid blocks.
system.cpu.dtb_walker_cache.tags.avg_refs          nan                       # Average number of references to valid blocks.
system.cpu.dtb_walker_cache.tags.warmup_cycle            0                       # Cycle when the warmup percentage was hit.
system.cpu.dtb_walker_cache.tags.tag_accesses            0                       # Number of tag accesses
system.cpu.dtb_walker_cache.tags.data_accesses            0                       # Number of data accesses
system.cpu.dtb_walker_cache.tags.power_state.pwrStateResidencyTicks::UNDEFINED  51566331000                       # Cumulative time (in ticks) in various power states
system.cpu.fetch.icacheStallCycles           12909591                       # Number of cycles fetch is stalled on an Icache miss
system.cpu.fetch.insts                      117833877                       # Number of instructions fetch has processed
system.cpu.fetch.branches                     6475285                       # Number of branches that fetch encountered
system.cpu.fetch.predictedBranches            4595157                       # Number of branches that fetch has predicted taken
system.cpu.fetch.cycles                      89725447                       # Number of cycles fetch has run and was not squashing or blocked
system.cpu.fetch.squashCycles                  592278                       # Number of cycles fetch has spent squashing
system.cpu.fetch.miscStallCycles                  766                       # Number of cycles fetch has spent waiting on interrupts,or bad addresses, or out of MSHRs
system.cpu.fetch.pendingTrapStallCycles          5455                       # Number of stall cycles due to pending traps
system.cpu.fetch.pendingQuiesceStallCycles            9                       # Number of stall cycles due to pending quiesce instructions
system.cpu.fetch.icacheWaitRetryStallCycles           24                       # Number of stall cycles due to full MSHR
system.cpu.fetch.cacheLines                  12629076                       # Number of cache lines fetched
system.cpu.fetch.icacheSquashes                  9005                       # Number of outstanding Icache misses that were squashed
system.cpu.fetch.nisnDist::samples          102937431                       # Number of instructions fetched each cycle (Total)
system.cpu.fetch.nisnDist::mean              2.027066                       # Number of instructions fetched each cycle (Total)
system.cpu.fetch.nisnDist::stdev             3.200411                       # Number of instructions fetched each cycle (Total)
system.cpu.fetch.nisnDist::underflows               0      0.00%      0.00% # Number of instructions fetched each cycle (Total)
system.cpu.fetch.nisnDist::0                 68393097     66.44%     66.44% # Number of instructions fetched each cycle (Total)
system.cpu.fetch.nisnDist::1                  2003637      1.95%     68.39% # Number of instructions fetched each cycle (Total)
system.cpu.fetch.nisnDist::2                  3576679      3.47%     71.86% # Number of instructions fetched each cycle (Total)
system.cpu.fetch.nisnDist::3                  2544830      2.47%     74.33% # Number of instructions fetched each cycle (Total)
system.cpu.fetch.nisnDist::4                  2031293      1.97%     76.31% # Number of instructions fetched each cycle (Total)
system.cpu.fetch.nisnDist::5                  2069920      2.01%     78.32% # Number of instructions fetched each cycle (Total)
system.cpu.fetch.nisnDist::6                  1371681      1.33%     79.65% # Number of instructions fetched each cycle (Total)
system.cpu.fetch.nisnDist::7                  2405761      2.34%     81.99% # Number of instructions fetched each cycle (Total)
system.cpu.fetch.nisnDist::8                 18540533     18.01%    100.00% # Number of instructions fetched each cycle (Total)
system.cpu.fetch.nisnDist::overflows                0      0.00%    100.00% # Number of instructions fetched each cycle (Total)
system.cpu.fetch.nisnDist::min_value                0                       # Number of instructions fetched each cycle (Total)
system.cpu.fetch.nisnDist::max_value                8                       # Number of instructions fetched each cycle (Total)
system.cpu.fetch.nisnDist::total            102937431                       # Number of instructions fetched each cycle (Total)
system.cpu.fetch.branchRate                  0.062786                       # Number of branch fetches per cycle
system.cpu.fetch.rate                        1.142547                       # Number of inst fetches per cycle
system.cpu.icache.demand_hits::.cpu.inst     12624463                       # number of demand (read+write) hits
system.cpu.icache.demand_hits::total         12624463                       # number of demand (read+write) hits
system.cpu.icache.overall_hits::.cpu.inst     12624463                       # number of overall hits
system.cpu.icache.overall_hits::total        12624463                       # number of overall hits
system.cpu.icache.demand_misses::.cpu.inst         4613                       # number of demand (read+write) misses
system.cpu.icache.demand_misses::total           4613                       # number of demand (read+write) misses
system.cpu.icache.overall_misses::.cpu.inst         4613                       # number of overall misses
system.cpu.icache.overall_misses::total          4613                       # number of overall misses
system.cpu.icache.demand_miss_latency::.cpu.inst    273697500                       # number of demand (read+write) miss cycles
system.cpu.icache.demand_miss_latency::total    273697500                       # number of demand (read+write) miss cycles
system.cpu.icache.overall_miss_latency::.cpu.inst    273697500                       # number of overall miss cycles
system.cpu.icache.overall_miss_latency::total    273697500                       # number of overall miss cycles
system.cpu.icache.demand_accesses::.cpu.inst     12629076                       # number of demand (read+write) accesses
system.cpu.icache.demand_accesses::total     12629076                       # number of demand (read+write) accesses
system.cpu.icache.overall_accesses::.cpu.inst     12629076                       # number of overall (read+write) accesses
system.cpu.icache.overall_accesses::total     12629076                       # number of overall (read+write) accesses
system.cpu.icache.demand_miss_rate::.cpu.inst     0.000365                       # miss rate for demand accesses
system.cpu.icache.demand_miss_rate::total     0.000365                       # miss rate for demand accesses
system.cpu.icache.overall_miss_rate::.cpu.inst     0.000365                       # miss rate for overall accesses
system.cpu.icache.overall_miss_rate::total     0.000365                       # miss rate for overall accesses
system.cpu.icache.demand_avg_miss_latency::.cpu.inst 59331.779753                       # average overall miss latency
system.cpu.icache.demand_avg_miss_latency::total 59331.779753                       # average overall miss latency
system.cpu.icache.overall_avg_miss_latency::.cpu.inst 59331.779753                       # average overall miss latency
system.cpu.icache.overall_avg_miss_latency::total 59331.779753                       # average overall miss latency
system.cpu.icache.blocked_cycles::no_mshrs         1207                       # number of cycles access was blocked
system.cpu.icache.blocked_cycles::no_targets            0                       # number of cycles access was blocked
system.cpu.icache.blocked::no_mshrs                14                       # number of cycles access was blocked
system.cpu.icache.blocked::no_targets               0                       # number of cycles access was blocked
system.cpu.icache.avg_blocked_cycles::no_mshrs    86.214286                       # average number of cycles each access was blocked
system.cpu.icache.avg_blocked_cycles::no_targets          nan                       # average number of cycles each access was blocked
system.cpu.icache.writebacks::.writebacks         3194                       # number of writebacks
system.cpu.icache.writebacks::total              3194                       # number of writebacks
system.cpu.icache.demand_mshr_hits::.cpu.inst          906                       # number of demand (read+write) MSHR hits
system.cpu.icache.demand_mshr_hits::total          906                       # number of demand (read+write) MSHR hits
system.cpu.icache.overall_mshr_hits::.cpu.inst          906                       # number of overall MSHR hits
system.cpu.icache.overall_mshr_hits::total          906                       # number of overall MSHR hits
system.cpu.icache.demand_mshr_misses::.cpu.inst         3707                       # number of demand (read+write) MSHR misses
system.cpu.icache.demand_mshr_misses::total         3707                       # number of demand (read+write) MSHR misses
system.cpu.icache.overall_mshr_misses::.cpu.inst         3707                       # number of overall MSHR misses
system.cpu.icache.overall_mshr_misses::total         3707                       # number of overall MSHR misses
system.cpu.icache.demand_mshr_miss_latency::.cpu.inst    221961500                       # number of demand (read+write) MSHR miss cycles
system.cpu.icache.demand_mshr_miss_latency::total    221961500                       # number of demand (read+write) MSHR miss cycles
system.cpu.icache.overall_mshr_miss_latency::.cpu.inst    221961500                       # number of overall MSHR miss cycles
system.cpu.icache.overall_mshr_miss_latency::total    221961500                       # number of overall MSHR miss cycles
system.cpu.icache.demand_mshr_miss_rate::.cpu.inst     0.000294                       # mshr miss rate for demand accesses
system.cpu.icache.demand_mshr_miss_rate::total     0.000294                       # mshr miss rate for demand accesses
system.cpu.icache.overall_mshr_miss_rate::.cpu.inst     0.000294                       # mshr miss rate for overall accesses
system.cpu.icache.overall_mshr_miss_rate::total     0.000294                       # mshr miss rate for overall accesses
system.cpu.icache.demand_avg_mshr_miss_latency::.cpu.inst 59876.315080                       # average overall mshr miss latency
system.cpu.icache.demand_avg_mshr_miss_latency::total 59876.315080                       # average overall mshr miss latency
system.cpu.icache.overall_avg_mshr_miss_latency::.cpu.inst 59876.315080                       # average overall mshr miss latency
system.cpu.icache.overall_avg_mshr_miss_latency::total 59876.315080                       # average overall mshr miss latency
system.cpu.icache.replacements                   3194                       # number of replacements
system.cpu.icache.ReadReq_hits::.cpu.inst     12624463                       # number of ReadReq hits
system.cpu.icache.ReadReq_hits::total        12624463                       # number of ReadReq hits
system.cpu.icache.ReadReq_misses::.cpu.inst         4613                       # number of ReadReq misses
system.cpu.icache.ReadReq_misses::total          4613                       # number of ReadReq misses
system.cpu.icache.ReadReq_miss_latency::.cpu.inst    273697500                       # number of ReadReq miss cycles
system.cpu.icache.ReadReq_miss_latency::total    273697500                       # number of ReadReq miss cycles
system.cpu.icache.ReadReq_accesses::.cpu.inst     12629076                       # number of ReadReq accesses(hits+misses)
system.cpu.icache.ReadReq_accesses::total     12629076                       # number of ReadReq accesses(hits+misses)
system.cpu.icache.ReadReq_miss_rate::.cpu.inst     0.000365                       # miss rate for ReadReq accesses
system.cpu.icache.ReadReq_miss_rate::total     0.000365                       # miss rate for ReadReq accesses
system.cpu.icache.ReadReq_avg_miss_latency::.cpu.inst 59331.779753                       # average ReadReq miss latency
system.cpu.icache.ReadReq_avg_miss_latency::total 59331.779753                       # average ReadReq miss latency
system.cpu.icache.ReadReq_mshr_hits::.cpu.inst          906                       # number of ReadReq MSHR hits
system.cpu.icache.ReadReq_mshr_hits::total          906                       # number of ReadReq MSHR hits
system.cpu.icache.ReadReq_mshr_misses::.cpu.inst         3707                       # number of ReadReq MSHR misses
system.cpu.icache.ReadReq_mshr_misses::total         3707                       # number of ReadReq MSHR misses
system.cpu.icache.ReadReq_mshr_miss_latency::.cpu.inst    221961500                       # number of ReadReq MSHR miss cycles
system.cpu.icache.ReadReq_mshr_miss_latency::total    221961500                       # number of ReadReq MSHR miss cycles
system.cpu.icache.ReadReq_mshr_miss_rate::.cpu.inst     0.000294                       # mshr miss rate for ReadReq accesses
system.cpu.icache.ReadReq_mshr_miss_rate::total     0.000294                       # mshr miss rate for ReadReq accesses
system.cpu.icache.ReadReq_avg_mshr_miss_latency::.cpu.inst 59876.315080                       # average ReadReq mshr miss latency
system.cpu.icache.ReadReq_avg_mshr_miss_latency::total 59876.315080                       # average ReadReq mshr miss latency
system.cpu.icache.power_state.pwrStateResidencyTicks::UNDEFINED  51566331000                       # Cumulative time (in ticks) in various power states
system.cpu.icache.tags.tagsinuse           511.361480                       # Cycle average of tags in use
system.cpu.icache.tags.total_refs            12628170                       # Total number of references to valid blocks.
system.cpu.icache.tags.sampled_refs              3707                       # Sample count of references to valid blocks.
system.cpu.icache.tags.avg_refs           3406.574049                       # Average number of references to valid blocks.
system.cpu.icache.tags.warmup_cycle             79500                       # Cycle when the warmup percentage was hit.
system.cpu.icache.tags.occ_blocks::.cpu.inst   511.361480                       # Average occupied blocks per requestor
system.cpu.icache.tags.occ_percent::.cpu.inst     0.998753                       # Average percentage of cache occupancy
system.cpu.icache.tags.occ_percent::total     0.998753                       # Average percentage of cache occupancy
system.cpu.icache.tags.occ_task_id_blocks::1024          512                       # Occupied blocks per task id
system.cpu.icache.tags.age_task_id_blocks_1024::3           10                       # Occupied blocks per task id
system.cpu.icache.tags.age_task_id_blocks_1024::4          502                       # Occupied blocks per task id
system.cpu.icache.tags.occ_task_id_percent::1024            1                       # Percentage of cache occupancy per task id
system.cpu.icache.tags.tag_accesses          25261859                       # Number of tag accesses
system.cpu.icache.tags.data_accesses         25261859                       # Number of data accesses
system.cpu.icache.tags.power_state.pwrStateResidencyTicks::UNDEFINED  51566331000                       # Cumulative time (in ticks) in various power states
system.cpu.interrupts.clk_domain.clock           8000                       # Clock period in ticks
system.cpu.itb.rdAccesses                           0                       # TLB accesses on read requests
system.cpu.itb.wrAccesses                    12629908                       # TLB accesses on write requests
system.cpu.itb.rdMisses                             0                       # TLB misses on read requests
system.cpu.itb.wrMisses                          1092                       # TLB misses on write requests
system.cpu.itb.walker.power_state.pwrStateResidencyTicks::UNDEFINED  51566331000                       # Cumulative time (in ticks) in various power states
system.cpu.itb_walker_cache.blocked_cycles::no_mshrs            0                       # number of cycles access was blocked
system.cpu.itb_walker_cache.blocked_cycles::no_targets            0                       # number of cycles access was blocked
system.cpu.itb_walker_cache.blocked::no_mshrs            0                       # number of cycles access was blocked
system.cpu.itb_walker_cache.blocked::no_targets            0                       # number of cycles access was blocked
system.cpu.itb_walker_cache.avg_blocked_cycles::no_mshrs          nan                       # average number of cycles each access was blocked
system.cpu.itb_walker_cache.avg_blocked_cycles::no_targets          nan                       # average number of cycles each access was blocked
system.cpu.itb_walker_cache.replacements            0                       # number of replacements
system.cpu.itb_walker_cache.power_state.pwrStateResidencyTicks::UNDEFINED  51566331000                       # Cumulative time (in ticks) in various power states
system.cpu.itb_walker_cache.tags.tagsinuse            0                       # Cycle average of tags in use
system.cpu.itb_walker_cache.tags.total_refs            0                       # Total number of references to valid blocks.
system.cpu.itb_walker_cache.tags.sampled_refs            0                       # Sample count of references to valid blocks.
system.cpu.itb_walker_cache.tags.avg_refs          nan                       # Average number of references to valid blocks.
system.cpu.itb_walker_cache.tags.warmup_cycle            0                       # Cycle when the warmup percentage was hit.
system.cpu.itb_walker_cache.tags.tag_accesses            0                       # Number of tag accesses
system.cpu.itb_walker_cache.tags.data_accesses            0                       # Number of data accesses
system.cpu.itb_walker_cache.tags.power_state.pwrStateResidencyTicks::UNDEFINED  51566331000                       # Cumulative time (in ticks) in various power states
system.cpu.lsq0.forwLoads                     1985170                       # Number of loads that had data forwarded from stores
system.cpu.lsq0.squashedLoads                 7291353                       # Number of loads squashed
system.cpu.lsq0.ignoredResponses                  102                       # Number of memory responses ignored because the instruction is squashed
system.cpu.lsq0.memOrderViolation                 562                       # Number of memory ordering violations
system.cpu.lsq0.squashedStores                8982830                       # Number of stores squashed
system.cpu.lsq0.rescheduledLoads                11961                       # Number of loads that were rescheduled
system.cpu.lsq0.blockedByCache                   7893                       # Number of times an access to memory failed due to the cache being blocked
system.cpu.power_state.pwrStateResidencyTicks::ON  51566331000                       # Cumulative time (in ticks) in various power states
system.cpu.rename.squashCycles                 294487                       # Number of cycles rename is squashing
system.cpu.rename.idleCycles                 12410387                       # Number of cycles rename is idle
system.cpu.rename.blockCycles                25717688                       # Number of cycles rename is blocking
system.cpu.rename.serializeStallCycles           2966                       # count of cycles rename stalledfor serializing inst
system.cpu.rename.runCycles                  20659057                       # Number of cycles rename is running
system.cpu.rename.unblockCycles              43852846                       # Number of cycles rename is unblocking
system.cpu.rename.renamedInsts              196411799                       # Number of instructions processed by rename
system.cpu.rename.ROBFullEvents                 12029                       # Number of times rename has blocked due to ROB full
system.cpu.rename.IQFullEvents               21982121                       # Number of times rename has blocked due to IQ full
system.cpu.rename.LQFullEvents                1526496                       # Number of times rename has blocked due to LQ full
system.cpu.rename.SQFullEvents               17202932                       # Number of times rename has blocked due to SQ full
system.cpu.rename.renamedOperands           249018069                       # Number of destination operands rename has renamed
system.cpu.rename.lookups                   478387454                       # Number of register rename lookups that rename has made
system.cpu.rename.intLookups                324088574                       # Number of integer rename lookups
system.cpu.rename.fpLookups                  48473022                       # Number of floating rename lookups
system.cpu.rename.committedMaps             225115857                       # Number of HB maps that are committed
system.cpu.rename.undoneMaps                 23902080                       # Number of HB maps that are undone due to squashing
system.cpu.rename.serializing                      45                       # count of serializing insts renamed
system.cpu.rename.tempSerializing                  30                       # count of temporary serializing insts renamed
system.cpu.rename.skidInsts                  66653026                       # count of insts added to the skid buffer
system.cpu.rob.reads                        276969212                       # The number of ROB reads
system.cpu.rob.writes                       383886947                       # The number of ROB writes
system.cpu.thread_0.numInsts                100000001                       # Number of Instructions committed
system.cpu.thread_0.numOps                  166019455                       # Number of Ops committed
system.cpu.thread_0.numMemRefs                      0                       # Number of Memory References
system.cpu_clk_domain.clock                       500                       # Clock period in ticks
system.cpu_voltage_domain.voltage                   1                       # Voltage in Volts
system.l2.demand_hits::.cpu.inst                  836                       # number of demand (read+write) hits
system.l2.demand_hits::.cpu.data                37606                       # number of demand (read+write) hits
system.l2.demand_hits::total                    38442                       # number of demand (read+write) hits
system.l2.overall_hits::.cpu.inst                 836                       # number of overall hits
system.l2.overall_hits::.cpu.data               37606                       # number of overall hits
system.l2.overall_hits::total                   38442                       # number of overall hits
system.l2.demand_misses::.cpu.inst               2871                       # number of demand (read+write) misses
system.l2.demand_misses::.cpu.data             384805                       # number of demand (read+write) misses
system.l2.demand_misses::total                 387676                       # number of demand (read+write) misses
system.l2.overall_misses::.cpu.inst              2871                       # number of overall misses
system.l2.overall_misses::.cpu.data            384805                       # number of overall misses
system.l2.overall_misses::total                387676                       # number of overall misses
system.l2.demand_miss_latency::.cpu.inst    207345500                       # number of demand (read+write) miss cycles
system.l2.demand_miss_latency::.cpu.data  27457084000                       # number of demand (read+write) miss cycles
system.l2.demand_miss_latency::total      27664429500                       # number of demand (read+write) miss cycles
system.l2.overall_miss_latency::.cpu.inst    207345500                       # number of overall miss cycles
system.l2.overall_miss_latency::.cpu.data  27457084000                       # number of overall miss cycles
system.l2.overall_miss_latency::total     27664429500                       # number of overall miss cycles
system.l2.demand_accesses::.cpu.inst             3707                       # number of demand (read+write) accesses
[...]
system.mem_ctrls.dram.writeBursts              165739                       # Number of DRAM write bursts
system.mem_ctrls.dram.perBankRdBursts::0        24357                       # Per bank write bursts
system.mem_ctrls.dram.perBankRdBursts::1        24836                       # Per bank write bursts
system.mem_ctrls.dram.perBankRdBursts::2        24570                       # Per bank write bursts
system.mem_ctrls.dram.perBankRdBursts::3        24716                       # Per bank write bursts
system.mem_ctrls.dram.perBankRdBursts::4        24121                       # Per bank write bursts
system.mem_ctrls.dram.perBankRdBursts::5        24139                       # Per bank write bursts
system.mem_ctrls.dram.perBankRdBursts::6        23846                       # Per bank write bursts
system.mem_ctrls.dram.perBankRdBursts::7        24129                       # Per bank write bursts
system.mem_ctrls.dram.perBankRdBursts::8        23985                       # Per bank write bursts
system.mem_ctrls.dram.perBankRdBursts::9        23887                       # Per bank write bursts
system.mem_ctrls.dram.perBankRdBursts::10        23880                       # Per bank write bursts
system.mem_ctrls.dram.perBankRdBursts::11        24067                       # Per bank write bursts
system.mem_ctrls.dram.perBankRdBursts::12        23984                       # Per bank write bursts
system.mem_ctrls.dram.perBankRdBursts::13        24228                       # Per bank write bursts
system.mem_ctrls.dram.perBankRdBursts::14        24603                       # Per bank write bursts
system.mem_ctrls.dram.perBankRdBursts::15        24317                       # Per bank write bursts
system.mem_ctrls.dram.perBankWrBursts::0        10216                       # Per bank write bursts
system.mem_ctrls.dram.perBankWrBursts::1        10510                       # Per bank write bursts
system.mem_ctrls.dram.perBankWrBursts::2        10224                       # Per bank write bursts
system.mem_ctrls.dram.perBankWrBursts::3        10257                       # Per bank write bursts
system.mem_ctrls.dram.perBankWrBursts::4        10133                       # Per bank write bursts
system.mem_ctrls.dram.perBankWrBursts::5        10307                       # Per bank write bursts
system.mem_ctrls.dram.perBankWrBursts::6        10261                       # Per bank write bursts
system.mem_ctrls.dram.perBankWrBursts::7        10427                       # Per bank write bursts
system.mem_ctrls.dram.perBankWrBursts::8        10320                       # Per bank write bursts
system.mem_ctrls.dram.perBankWrBursts::9        10232                       # Per bank write bursts
system.mem_ctrls.dram.perBankWrBursts::10        10327                       # Per bank write bursts
system.mem_ctrls.dram.perBankWrBursts::11        10415                       # Per bank write bursts
system.mem_ctrls.dram.perBankWrBursts::12        10417                       # Per bank write bursts
system.mem_ctrls.dram.perBankWrBursts::13        10680                       # Per bank write bursts
system.mem_ctrls.dram.perBankWrBursts::14        10670                       # Per bank write bursts
system.mem_ctrls.dram.perBankWrBursts::15        10343                       # Per bank write bursts
system.mem_ctrls.dram.totQLat              3639056750                       # Total ticks spent queuing
system.mem_ctrls.dram.totBusLat            1938325000                       # Total ticks spent in databus transfers
system.mem_ctrls.dram.totMemAccLat        10907775500                       # Total ticks spent from burst creation until serviced by the DRAM
system.mem_ctrls.dram.avgQLat                 9387.12                       # Average queueing delay per DRAM burst
system.mem_ctrls.dram.avgBusLat               5000.00                       # Average bus latency per DRAM burst
system.mem_ctrls.dram.avgMemAccLat           28137.12                       # Average memory access latency per DRAM burst
system.mem_ctrls.dram.readRowHits              326578                       # Number of row buffer hits during reads
system.mem_ctrls.dram.writeRowHits             139147                       # Number of row buffer hits during writes
system.mem_ctrls.dram.readRowHitRate            84.24                       # Row buffer hit rate for reads
system.mem_ctrls.dram.writeRowHitRate           83.96                       # Row buffer hit rate for writes
system.mem_ctrls.dram.bytesPerActivate::samples        87673                       # Bytes accessed per row activation
system.mem_ctrls.dram.bytesPerActivate::mean   403.950498                       # Bytes accessed per row activation
system.mem_ctrls.dram.bytesPerActivate::gmean   253.765488                       # Bytes accessed per row activation
system.mem_ctrls.dram.bytesPerActivate::stdev   348.663145                       # Bytes accessed per row activation
system.mem_ctrls.dram.bytesPerActivate::0-127        22377     25.52%     25.52% # Bytes accessed per row activation
system.mem_ctrls.dram.bytesPerActivate::128-255        17384     19.83%     45.35% # Bytes accessed per row activation
system.mem_ctrls.dram.bytesPerActivate::256-383         9004     10.27%     55.62% # Bytes accessed per row activation
system.mem_ctrls.dram.bytesPerActivate::384-511         9138     10.42%     66.04% # Bytes accessed per row activation
system.mem_ctrls.dram.bytesPerActivate::512-639         5471      6.24%     72.28% # Bytes accessed per row activation
system.mem_ctrls.dram.bytesPerActivate::640-767         3621      4.13%     76.41% # Bytes accessed per row activation
system.mem_ctrls.dram.bytesPerActivate::768-895         4713      5.38%     81.79% # Bytes accessed per row activation
system.mem_ctrls.dram.bytesPerActivate::896-1023         3680      4.20%     85.99% # Bytes accessed per row activation
system.mem_ctrls.dram.bytesPerActivate::1024-1151        12285     14.01%    100.00% # Bytes accessed per row activation
system.mem_ctrls.dram.bytesPerActivate::total        87673                       # Bytes accessed per row activation
system.mem_ctrls.dram.bytesRead              24810560                       # Total number of bytes read from DRAM
system.mem_ctrls.dram.bytesWritten           10607296                       # Total number of bytes written to DRAM
system.mem_ctrls.dram.avgRdBW              481.138749                       # Average DRAM read bandwidth in MiBytes/s
system.mem_ctrls.dram.avgWrBW              205.701972                       # Average DRAM write bandwidth in MiBytes/s
system.mem_ctrls.dram.peakBW                 12800.00                       # Theoretical peak bandwidth in MiByte/s
system.mem_ctrls.dram.busUtil                    5.37                       # Data bus utilization in percentage
system.mem_ctrls.dram.busUtilRead                3.76                       # Data bus utilization in percentage for reads
system.mem_ctrls.dram.busUtilWrite               1.61                       # Data bus utilization in percentage for writes
system.mem_ctrls.dram.pageHitRate               84.16                       # Row buffer hit rate, read and write combined
system.mem_ctrls.dram.power_state.pwrStateResidencyTicks::UNDEFINED  51566331000                       # Cumulative time (in ticks) in various power states
system.mem_ctrls.dram.rank0.actEnergy       311496780                       # Energy for activate commands per rank (pJ)
system.mem_ctrls.dram.rank0.preEnergy       165553080                       # Energy for precharge commands per rank (pJ)
system.mem_ctrls.dram.rank0.readEnergy     1390257960                       # Energy for read commands per rank (pJ)
system.mem_ctrls.dram.rank0.writeEnergy     429788700                       # Energy for write commands per rank (pJ)
system.mem_ctrls.dram.rank0.refreshEnergy 4070146080.000000                       # Energy for refresh commands per rank (pJ)
system.mem_ctrls.dram.rank0.actBackEnergy  19166475150                       # Energy for active background per rank (pJ)
system.mem_ctrls.dram.rank0.preBackEnergy   3661281600                       # Energy for precharge background per rank (pJ)
system.mem_ctrls.dram.rank0.actPowerDownEnergy            0                       # Energy for active power-down per rank (pJ)
system.mem_ctrls.dram.rank0.prePowerDownEnergy            0                       # Energy for precharge power-down per rank (pJ)
system.mem_ctrls.dram.rank0.selfRefreshEnergy            0                       # Energy for self refresh per rank (pJ)
system.mem_ctrls.dram.rank0.totalEnergy   29194999350                       # Total energy per rank (pJ)
system.mem_ctrls.dram.rank0.averagePower   566.163983                       # Core power per rank (mW)
system.mem_ctrls.dram.rank0.totalIdleTime            0                       # Total Idle time Per DRAM Rank
system.mem_ctrls.dram.rank0.pwrStateTime::IDLE   9277379250                       # Time in different power states
system.mem_ctrls.dram.rank0.pwrStateTime::REF   1721720000                       # Time in different power states
system.mem_ctrls.dram.rank0.pwrStateTime::SREF            0                       # Time in different power states
system.mem_ctrls.dram.rank0.pwrStateTime::PRE_PDN            0                       # Time in different power states
system.mem_ctrls.dram.rank0.pwrStateTime::ACT  40567231750                       # Time in different power states
system.mem_ctrls.dram.rank0.pwrStateTime::ACT_PDN            0                       # Time in different power states
system.mem_ctrls.dram.rank1.actEnergy       314531280                       # Energy for activate commands per rank (pJ)
system.mem_ctrls.dram.rank1.preEnergy       167165955                       # Energy for precharge commands per rank (pJ)
system.mem_ctrls.dram.rank1.readEnergy     1377670140                       # Energy for read commands per rank (pJ)
system.mem_ctrls.dram.rank1.writeEnergy     435368880                       # Energy for write commands per rank (pJ)
system.mem_ctrls.dram.rank1.refreshEnergy 4070146080.000000                       # Energy for refresh commands per rank (pJ)
system.mem_ctrls.dram.rank1.actBackEnergy  19034466570                       # Energy for active background per rank (pJ)
system.mem_ctrls.dram.rank1.preBackEnergy   3772446720                       # Energy for precharge background per rank (pJ)
system.mem_ctrls.dram.rank1.actPowerDownEnergy            0                       # Energy for active power-down per rank (pJ)
system.mem_ctrls.dram.rank1.prePowerDownEnergy            0                       # Energy for precharge power-down per rank (pJ)
system.mem_ctrls.dram.rank1.selfRefreshEnergy            0                       # Energy for self refresh per rank (pJ)
system.mem_ctrls.dram.rank1.totalEnergy   29171795625                       # Total energy per rank (pJ)
system.mem_ctrls.dram.rank1.averagePower   565.714005                       # Core power per rank (mW)
system.mem_ctrls.dram.rank1.totalIdleTime            0                       # Total Idle time Per DRAM Rank
system.mem_ctrls.dram.rank1.pwrStateTime::IDLE   9559532750                       # Time in different power states
system.mem_ctrls.dram.rank1.pwrStateTime::REF   1721720000                       # Time in different power states
system.mem_ctrls.dram.rank1.pwrStateTime::SREF            0                       # Time in different power states
system.mem_ctrls.dram.rank1.pwrStateTime::PRE_PDN            0                       # Time in different power states
system.mem_ctrls.dram.rank1.pwrStateTime::ACT  40285078250                       # Time in different power states
system.mem_ctrls.dram.rank1.pwrStateTime::ACT_PDN            0                       # Time in different power states
system.mem_ctrls.power_state.pwrStateResidencyTicks::UNDEFINED  51566331000                       # Cumulative time (in ticks) in various power states
system.membus.trans_dist::ReadResp             221974                       # Transaction distribution
system.membus.trans_dist::WritebackDirty       165755                       # Transaction distribution
system.membus.trans_dist::CleanEvict           213208                       # Transaction distribution
system.membus.trans_dist::UpgradeReq                1                       # Transaction distribution
system.membus.trans_dist::ReadExReq            165701                       # Transaction distribution
system.membus.trans_dist::ReadExResp           165701                       # Transaction distribution
system.membus.trans_dist::ReadSharedReq        221974                       # Transaction distribution
system.membus.pkt_count_system.l2.mem_side_port::system.mem_ctrls.port      1154314                       # Packet count per connected requestor and responder (bytes)
system.membus.pkt_count_system.l2.mem_side_port::total      1154314                       # Packet count per connected requestor and responder (bytes)
system.membus.pkt_count::total                1154314                       # Packet count per connected requestor and responder (bytes)
system.membus.pkt_size_system.l2.mem_side_port::system.mem_ctrls.port     35419520                       # Cumulative packet size per connected requestor and responder (bytes)
system.membus.pkt_size_system.l2.mem_side_port::total     35419520                       # Cumulative packet size per connected requestor and responder (bytes)
system.membus.pkt_size::total                35419520                       # Cumulative packet size per connected requestor and responder (bytes)
system.membus.snoops                                0                       # Total snoops (count)
system.membus.snoopTraffic                          0                       # Total snoop traffic (bytes)
system.membus.snoop_fanout::samples            387676                       # Request fanout histogram
system.membus.snoop_fanout::mean                    0                       # Request fanout histogram
system.membus.snoop_fanout::stdev                   0                       # Request fanout histogram
system.membus.snoop_fanout::underflows              0      0.00%      0.00% # Request fanout histogram
system.membus.snoop_fanout::0                  387676    100.00%    100.00% # Request fanout histogram
system.membus.snoop_fanout::1                       0      0.00%    100.00% # Request fanout histogram
system.membus.snoop_fanout::overflows               0      0.00%    100.00% # Request fanout histogram
system.membus.snoop_fanout::min_value               0                       # Request fanout histogram
system.membus.snoop_fanout::max_value               0                       # Request fanout histogram
system.membus.snoop_fanout::total              387676                       # Request fanout histogram
system.membus.power_state.pwrStateResidencyTicks::UNDEFINED  51566331000                       # Cumulative time (in ticks) in various power states
system.membus.reqLayer2.occupancy           357414750                       # Layer occupancy (ticks)
system.membus.reqLayer2.utilization               0.7                       # Layer utilization (%)
system.membus.respLayer1.occupancy          484593750                       # Layer occupancy (ticks)
system.membus.respLayer1.utilization              0.9                       # Layer utilization (%)
system.tol2bus.trans_dist::ReadResp            258287                       # Transaction distribution
system.tol2bus.trans_dist::WritebackDirty       338135                       # Transaction distribution
system.tol2bus.trans_dist::WritebackClean         3194                       # Transaction distribution
system.tol2bus.trans_dist::CleanEvict          463915                       # Transaction distribution
system.tol2bus.trans_dist::UpgradeReq               1                       # Transaction distribution
system.tol2bus.trans_dist::UpgradeResp              1                       # Transaction distribution
system.tol2bus.trans_dist::ReadExReq           167830                       # Transaction distribution
system.tol2bus.trans_dist::ReadExResp          167830                       # Transaction distribution
system.tol2bus.trans_dist::ReadCleanReq          3707                       # Transaction distribution
system.tol2bus.trans_dist::ReadSharedReq       254581                       # Transaction distribution
system.tol2bus.pkt_count_system.cpu.icache.mem_side_port::system.l2.cpu_side_port        10608                       # Packet count per connected requestor and responder (bytes)
system.tol2bus.pkt_count_system.cpu.dcache.mem_side_port::system.l2.cpu_side_port      1266721                       # Packet count per connected requestor and responder (bytes)
system.tol2bus.pkt_count::total               1277329                       # Packet count per connected requestor and responder (bytes)
system.tol2bus.pkt_size_system.cpu.icache.mem_side_port::system.l2.cpu_side_port       441664                       # Cumulative packet size per connected requestor and responder (bytes)
system.tol2bus.pkt_size_system.cpu.dcache.mem_side_port::system.l2.cpu_side_port     38066560                       # Cumulative packet size per connected requestor and responder (bytes)
system.tol2bus.pkt_size::total               38508224                       # Cumulative packet size per connected requestor and responder (bytes)
system.tol2bus.snoops                          380152                       # Total snoops (count)
system.tol2bus.snoopTraffic                  10608320                       # Total snoop traffic (bytes)
system.tol2bus.snoop_fanout::samples           806271                       # Request fanout histogram
system.tol2bus.snoop_fanout::mean            0.001531                       # Request fanout histogram
system.tol2bus.snoop_fanout::stdev           0.039092                       # Request fanout histogram
system.tol2bus.snoop_fanout::underflows             0      0.00%      0.00% # Request fanout histogram
system.tol2bus.snoop_fanout::0                 805037     99.85%     99.85% # Request fanout histogram
system.tol2bus.snoop_fanout::1                   1234      0.15%    100.00% # Request fanout histogram
system.tol2bus.snoop_fanout::2                      0      0.00%    100.00% # Request fanout histogram
system.tol2bus.snoop_fanout::3                      0      0.00%    100.00% # Request fanout histogram
system.tol2bus.snoop_fanout::4                      0      0.00%    100.00% # Request fanout histogram
system.tol2bus.snoop_fanout::overflows              0      0.00%    100.00% # Request fanout histogram
system.tol2bus.snoop_fanout::min_value              0                       # Request fanout histogram
system.tol2bus.snoop_fanout::max_value              1                       # Request fanout histogram
system.tol2bus.snoop_fanout::total             806271                       # Request fanout histogram
system.tol2bus.power_state.pwrStateResidencyTicks::UNDEFINED  51566331000                       # Cumulative time (in ticks) in various power states
system.tol2bus.reqLayer0.occupancy          601179500                       # Layer occupancy (ticks)
system.tol2bus.reqLayer0.utilization              1.2                       # Layer utilization (%)
system.tol2bus.respLayer0.occupancy           5561498                       # Layer occupancy (ticks)
system.tol2bus.respLayer0.utilization             0.0                       # Layer utilization (%)
system.tol2bus.respLayer1.occupancy         633616997                       # Layer occupancy (ticks)
system.tol2bus.respLayer1.utilization             1.2                       # Layer utilization (%)
system.voltage_domain.voltage                       1                       # Voltage in Volts

---------- End Simulation Statistics   ----------
