
---------- Begin Simulation Statistics ----------
final_tick                                 6312337500                       # Number of ticks from beginning of simulation (restored from checkpoints and never reset)
host_inst_rate                                  76821                       # Simulator instruction rate (inst/s)
host_mem_usage                                 724100                       # Number of bytes of host memory used
host_op_rate                                   123042                       # Simulator op (including micro ops) rate (op/s)
host_seconds                                   130.17                       # Real time elapsed on the host
host_tick_rate                               48492114                       # Simulator tick rate (ticks/s)
sim_freq                                 1000000000000                       # Frequency of simulated ticks
sim_insts                                    10000004                       # Number of instructions simulated
sim_ops                                      16016672                       # Number of ops (including micro ops) simulated
sim_seconds                                  0.006312                       # Number of seconds simulated
sim_ticks                                  6312337500                       # Number of ticks simulated
system.cpu.cc_regfile_reads                   9243911                       # number of cc regfile reads
system.cpu.cc_regfile_writes                  8600645                       # number of cc regfile writes
system.cpu.committedInsts                    10000004                       # Number of Instructions Simulated
system.cpu.committedOps                      16016672                       # Number of Ops (including micro ops) Simulated
system.cpu.cpi                               1.262467                       # CPI: Cycles Per Instruction
system.cpu.cpi_total                         1.262467                       # CPI: Total CPI of All Threads
system.cpu.fp_regfile_reads                    981790                       # number of floating regfile reads
system.cpu.fp_regfile_writes                   521523                       # number of floating regfile writes
system.cpu.idleCycles                          132098                       # Total number of cycles that the CPU has spent unscheduled due to idling
system.cpu.iew.branchMispredicts                80077                       # Number of branch mispredicts detected at execute
system.cpu.iew.exec_branches                  1379073                       # Number of branches executed
system.cpu.iew.exec_nop                             0                       # number of nop insts executed
system.cpu.iew.exec_rate                     1.450999                       # Inst execution rate
system.cpu.iew.exec_refs                      4568503                       # number of memory reference insts executed
system.cpu.iew.exec_stores                    1566453                       # Number of stores executed
system.cpu.iew.exec_swp                             0                       # number of swp insts executed
system.cpu.iew.iewBlockCycles                 1131833                       # Number of cycles IEW is blocking
system.cpu.iew.iewDispLoadInsts               3268318                       # Number of dispatched load instructions
system.cpu.iew.iewDispNonSpecInsts                940                       # Number of dispatched non-speculative instructions
system.cpu.iew.iewDispSquashedInsts              2440                       # Number of squashed instructions skipped by dispatch
system.cpu.iew.iewDispStoreInsts              1616604                       # Number of dispatched store instructions
system.cpu.iew.iewDispatchedInsts            19859807                       # Number of instructions dispatched to IQ
system.cpu.iew.iewExecLoadInsts               3002050                       # Number of load instructions executed
system.cpu.iew.iewExecSquashedInsts            159921                       # Number of squashed instructions skipped in execute
system.cpu.iew.iewExecutedInsts              18318398                       # Number of executed instructions
system.cpu.iew.iewIQFullEvents                   9728                       # Number of times the IQ has become full, causing a stall
system.cpu.iew.iewIdleCycles                        0                       # Number of cycles IEW is idle
system.cpu.iew.iewLSQFullEvents               2410008                       # Number of times the LSQ has become full, causing a stall
system.cpu.iew.iewSquashCycles                  70104                       # Number of cycles IEW is squashing
system.cpu.iew.iewUnblockCycles               2423293                       # Number of cycles IEW is unblocking
system.cpu.iew.memOrderViolationEvents            327                       # Number of memory order violations
system.cpu.iew.predictedNotTakenIncorrect        46326                       # Number of branches that were predicted not taken incorrectly
system.cpu.iew.predictedTakenIncorrect          33751                       # Number of branches that were predicted taken incorrectly
system.cpu.iew.wb_consumers                  24140948                       # num instructions consuming a value
system.cpu.iew.wb_count                      18188960                       # cumulative count of insts written-back
system.cpu.iew.wb_fanout                     0.561264                       # average fanout of values written-back
system.cpu.iew.wb_producers                  13549456                       # num instructions producing a value
system.cpu.iew.wb_rate                       1.440747                       # insts written-back per cycle
system.cpu.iew.wb_sent                       18248491                       # cumulative count of insts sent to commit
system.cpu.int_regfile_reads                 29937605                       # number of integer regfile reads
system.cpu.int_regfile_writes                14653939                       # number of integer regfile writes
system.cpu.ipc                               0.792100                       # IPC: Instructions Per Cycle
system.cpu.ipc_total                         0.792100                       # IPC: Total IPC of All Threads
system.cpu.iq.FU_type_0::No_OpClass            229721      1.24%      1.24% # Type of FU issued
system.cpu.iq.FU_type_0::IntAlu              13128118     71.05%     72.29% # Type of FU issued
system.cpu.iq.FU_type_0::IntMult                   86      0.00%     72.29% # Type of FU issued
system.cpu.iq.FU_type_0::IntDiv                 43525      0.24%     72.53% # Type of FU issued
system.cpu.iq.FU_type_0::FloatAdd              134574      0.73%     73.25% # Type of FU issued
system.cpu.iq.FU_type_0::FloatCmp                   0      0.00%     73.25% # Type of FU issued
system.cpu.iq.FU_type_0::FloatCvt                1406      0.01%     73.26% # Type of FU issued
system.cpu.iq.FU_type_0::FloatMult                  0      0.00%     73.26% # Type of FU issued
system.cpu.iq.FU_type_0::FloatMultAcc               0      0.00%     73.26% # Type of FU issued
system.cpu.iq.FU_type_0::FloatDiv                   0      0.00%     73.26% # Type of FU issued
system.cpu.iq.FU_type_0::FloatMisc                  0      0.00%     73.26% # Type of FU issued
system.cpu.iq.FU_type_0::FloatSqrt                  0      0.00%     73.26% # Type of FU issued
system.cpu.iq.FU_type_0::SimdAdd                 9170      0.05%     73.31% # Type of FU issued
system.cpu.iq.FU_type_0::SimdAddAcc                 0      0.00%     73.31% # Type of FU issued
system.cpu.iq.FU_type_0::SimdAlu                29011      0.16%     73.47% # Type of FU issued
system.cpu.iq.FU_type_0::SimdCmp                    6      0.00%     73.47% # Type of FU issued
system.cpu.iq.FU_type_0::SimdCvt                20597      0.11%     73.58% # Type of FU issued
system.cpu.iq.FU_type_0::SimdMisc              256619      1.39%     74.97% # Type of FU issued
system.cpu.iq.FU_type_0::SimdMult                   0      0.00%     74.97% # Type of FU issued
system.cpu.iq.FU_type_0::SimdMultAcc                0      0.00%     74.97% # Type of FU issued
system.cpu.iq.FU_type_0::SimdShift               6591      0.04%     75.00% # Type of FU issued
system.cpu.iq.FU_type_0::SimdShiftAcc               0      0.00%     75.00% # Type of FU issued
system.cpu.iq.FU_type_0::SimdDiv                    0      0.00%     75.00% # Type of FU issued
system.cpu.iq.FU_type_0::SimdSqrt                   0      0.00%     75.00% # Type of FU issued
system.cpu.iq.FU_type_0::SimdFloatAdd               0      0.00%     75.00% # Type of FU issued
system.cpu.iq.FU_type_0::SimdFloatAlu               0      0.00%     75.00% # Type of FU issued
system.cpu.iq.FU_type_0::SimdFloatCmp               0      0.00%     75.00% # Type of FU issued
system.cpu.iq.FU_type_0::SimdFloatCvt            6105      0.03%     75.04% # Type of FU issued
system.cpu.iq.FU_type_0::SimdFloatDiv               0      0.00%     75.04% # Type of FU issued
system.cpu.iq.FU_type_0::SimdFloatMisc              0      0.00%     75.04% # Type of FU issued
system.cpu.iq.FU_type_0::SimdFloatMult           3034      0.02%     75.05% # Type of FU issued
system.cpu.iq.FU_type_0::SimdFloatMultAcc            0      0.00%     75.05% # Type of FU issued
system.cpu.iq.FU_type_0::SimdFloatSqrt              0      0.00%     75.05% # Type of FU issued
system.cpu.iq.FU_type_0::SimdReduceAdd              0      0.00%     75.05% # Type of FU issued
system.cpu.iq.FU_type_0::SimdReduceAlu              0      0.00%     75.05% # Type of FU issued
system.cpu.iq.FU_type_0::SimdReduceCmp              0      0.00%     75.05% # Type of FU issued
system.cpu.iq.FU_type_0::SimdFloatReduceAdd            0      0.00%     75.05% # Type of FU issued
system.cpu.iq.FU_type_0::SimdFloatReduceCmp            0      0.00%     75.05% # Type of FU issued
system.cpu.iq.FU_type_0::SimdAes                    0      0.00%     75.05% # Type of FU issued
system.cpu.iq.FU_type_0::SimdAesMix                 0      0.00%     75.05% # Type of FU issued
system.cpu.iq.FU_type_0::SimdSha1Hash               0      0.00%     75.05% # Type of FU issued
system.cpu.iq.FU_type_0::SimdSha1Hash2              0      0.00%     75.05% # Type of FU issued
system.cpu.iq.FU_type_0::SimdSha256Hash             0      0.00%     75.05% # Type of FU issued
system.cpu.iq.FU_type_0::SimdSha256Hash2            0      0.00%     75.05% # Type of FU issued
system.cpu.iq.FU_type_0::SimdShaSigma2              0      0.00%     75.05% # Type of FU issued
system.cpu.iq.FU_type_0::SimdShaSigma3              0      0.00%     75.05% # Type of FU issued
system.cpu.iq.FU_type_0::SimdPredAlu                0      0.00%     75.05% # Type of FU issued
system.cpu.iq.FU_type_0::MemRead              2992057     16.19%     91.25% # Type of FU issued
system.cpu.iq.FU_type_0::MemWrite             1219429      6.60%     97.84% # Type of FU issued
system.cpu.iq.FU_type_0::FloatMemRead           40984      0.22%     98.07% # Type of FU issued
system.cpu.iq.FU_type_0::FloatMemWrite         357289      1.93%    100.00% # Type of FU issued
system.cpu.iq.FU_type_0::IprAccess                  0      0.00%    100.00% # Type of FU issued
system.cpu.iq.FU_type_0::InstPrefetch               0      0.00%    100.00% # Type of FU issued
system.cpu.iq.FU_type_0::total               18478322                       # Type of FU issued
system.cpu.iq.fp_alu_accesses                  932341                       # Number of floating point alu accesses
system.cpu.iq.fp_inst_queue_reads             1833412                       # Number of floating instruction queue reads
system.cpu.iq.fp_inst_queue_wakeup_accesses       873865                       # Number of floating instruction queue wakeup accesses
system.cpu.iq.fp_inst_queue_writes            1037712                       # Number of floating instruction queue writes
system.cpu.iq.fu_busy_cnt                      273390                       # FU busy when requested
system.cpu.iq.fu_busy_rate                   0.014795                       # FU busy rate (busy events/executed inst)
system.cpu.iq.fu_full::No_OpClass                   0      0.00%      0.00% # attempts to use FU when none available
system.cpu.iq.fu_full::IntAlu                  131264     48.01%     48.01% # attempts to use FU when none available
system.cpu.iq.fu_full::IntMult                      0      0.00%     48.01% # attempts to use FU when none available
system.cpu.iq.fu_full::IntDiv                       0      0.00%     48.01% # attempts to use FU when none available
system.cpu.iq.fu_full::FloatAdd                     0      0.00%     48.01% # attempts to use FU when none available
system.cpu.iq.fu_full::FloatCmp                     0      0.00%     48.01% # attempts to use FU when none available
system.cpu.iq.fu_full::FloatCvt                     0      0.00%     48.01% # attempts to use FU when none available
system.cpu.iq.fu_full::FloatMult                    0      0.00%     48.01% # attempts to use FU when none available
system.cpu.iq.fu_full::FloatMultAcc                 0      0.00%     48.01% # attempts to use FU when none available
system.cpu.iq.fu_full::FloatDiv                     0      0.00%     48.01% # attempts to use FU when none available
system.cpu.iq.fu_full::FloatMisc                    0      0.00%     48.01% # attempts to use FU when none available
system.cpu.iq.fu_full::FloatSqrt                    0      0.00%     48.01% # attempts to use FU when none available
system.cpu.iq.fu_full::SimdAdd                      1      0.00%     48.01% # attempts to use FU when none available
system.cpu.iq.fu_full::SimdAddAcc                   0      0.00%     48.01% # attempts to use FU when none available
system.cpu.iq.fu_full::SimdAlu                    194      0.07%     48.08% # attempts to use FU when none available
system.cpu.iq.fu_full::SimdCmp                      0      0.00%     48.08% # attempts to use FU when none available
system.cpu.iq.fu_full::SimdCvt                   1059      0.39%     48.47% # attempts to use FU when none available
system.cpu.iq.fu_full::SimdMisc                 29554     10.81%     59.28% # attempts to use FU when none available
system.cpu.iq.fu_full::SimdMult                     0      0.00%     59.28% # attempts to use FU when none available
system.cpu.iq.fu_full::SimdMultAcc                  0      0.00%     59.28% # attempts to use FU when none available
system.cpu.iq.fu_full::SimdShift                   29      0.01%     59.29% # attempts to use FU when none available
system.cpu.iq.fu_full::SimdShiftAcc                 0      0.00%     59.29% # attempts to use FU when none available
system.cpu.iq.fu_full::SimdDiv                      0      0.00%     59.29% # attempts to use FU when none available
system.cpu.iq.fu_full::SimdSqrt                     0      0.00%     59.29% # attempts to use FU when none available
system.cpu.iq.fu_full::SimdFloatAdd                 0      0.00%     59.29% # attempts to use FU when none available
system.cpu.iq.fu_full::SimdFloatAlu                 0      0.00%     59.29% # attempts to use FU when none available
system.cpu.iq.fu_full::SimdFloatCmp                 0      0.00%     59.29% # attempts to use FU when none available
system.cpu.iq.fu_full::SimdFloatCvt                 0      0.00%     59.29% # attempts to use FU when none available
system.cpu.iq.fu_full::SimdFloatDiv                 0      0.00%     59.29% # attempts to use FU when none available
system.cpu.iq.fu_full::SimdFloatMisc                0      0.00%     59.29% # attempts to use FU when none available
system.cpu.iq.fu_full::SimdFloatMult                0      0.00%     59.29% # attempts to use FU when none available
system.cpu.iq.fu_full::SimdFloatMultAcc             0      0.00%     59.29% # attempts to use FU when none available
system.cpu.iq.fu_full::SimdFloatSqrt                0      0.00%     59.29% # attempts to use FU when none available
system.cpu.iq.fu_full::SimdReduceAdd                0      0.00%     59.29% # attempts to use FU when none available
system.cpu.iq.fu_full::SimdReduceAlu                0      0.00%     59.29% # attempts to use FU when none available
system.cpu.iq.fu_full::SimdReduceCmp                0      0.00%     59.29% # attempts to use FU when none available
system.cpu.iq.fu_full::SimdFloatReduceAdd            0      0.00%     59.29% # attempts to use FU when none available
system.cpu.iq.fu_full::SimdFloatReduceCmp            0      0.00%     59.29% # attempts to use FU when none available
system.cpu.iq.fu_full::SimdAes                      0      0.00%     59.29% # attempts to use FU when none available
system.cpu.iq.fu_full::SimdAesMix                   0      0.00%     59.29% # attempts to use FU when none available
system.cpu.iq.fu_full::SimdSha1Hash                 0      0.00%     59.29% # attempts to use FU when none available
system.cpu.iq.fu_full::SimdSha1Hash2                0      0.00%     59.29% # attempts to use FU when none available
system.cpu.iq.fu_full::SimdSha256Hash               0      0.00%     59.29% # attempts to use FU when none available
system.cpu.iq.fu_full::SimdSha256Hash2              0      0.00%     59.29% # attempts to use FU when none available
system.cpu.iq.fu_full::SimdShaSigma2                0      0.00%     59.29% # attempts to use FU when none available
system.cpu.iq.fu_full::SimdShaSigma3                0      0.00%     59.29% # attempts to use FU when none available
system.cpu.iq.fu_full::SimdPredAlu                  0      0.00%     59.29% # attempts to use FU when none available
system.cpu.iq.fu_full::MemRead                 101329     37.06%     96.36% # attempts to use FU when none available
system.cpu.iq.fu_full::MemWrite                  8341      3.05%     99.41% # attempts to use FU when none available
system.cpu.iq.fu_full::FloatMemRead               674      0.25%     99.65% # attempts to use FU when none available
system.cpu.iq.fu_full::FloatMemWrite              945      0.35%    100.00% # attempts to use FU when none available
system.cpu.iq.fu_full::IprAccess                    0      0.00%    100.00% # attempts to use FU when none available
system.cpu.iq.fu_full::InstPrefetch                 0      0.00%    100.00% # attempts to use FU when none available
system.cpu.iq.int_alu_accesses               17589650                       # Number of integer alu accesses
system.cpu.iq.int_inst_queue_reads           47903172                       # Number of integer instruction queue reads
system.cpu.iq.int_inst_queue_wakeup_accesses     17315095                       # Number of integer instruction queue wakeup accesses
system.cpu.iq.int_inst_queue_writes          22665467                       # Number of integer instruction queue writes
system.cpu.iq.iqInstsAdded                   19858409                       # Number of instructions added to the IQ (excludes non-spec)
system.cpu.iq.iqInstsIssued                  18478322                       # Number of instructions issued
system.cpu.iq.iqNonSpecInstsAdded                1398                       # Number of non-speculative instructions added to the IQ
system.cpu.iq.iqSquashedInstsExamined         3843069                       # Number of squashed instructions iterated over during squash; mainly for profiling
system.cpu.iq.iqSquashedInstsIssued             13975                       # Number of squashed instructions issued
system.cpu.iq.iqSquashedNonSpecRemoved            195                       # Number of squashed non-spec instructions that were removed
system.cpu.iq.iqSquashedOperandsExamined      6225179                       # Number of squashed operands that are examined and possibly removed from graph
system.cpu.iq.issued_per_cycle::samples      12492578                       # Number of insts issued each cycle
system.cpu.iq.issued_per_cycle::mean         1.479144                       # Number of insts issued each cycle
system.cpu.iq.issued_per_cycle::stdev        2.099214                       # Number of insts issued each cycle
system.cpu.iq.issued_per_cycle::underflows            0      0.00%      0.00% # Number of insts issued each cycle
system.cpu.iq.issued_per_cycle::0             6914354     55.35%     55.35% # Number of insts issued each cycle
system.cpu.iq.issued_per_cycle::1             1211047      9.69%     65.04% # Number of insts issued each cycle
system.cpu.iq.issued_per_cycle::2             1098001      8.79%     73.83% # Number of insts issued each cycle
system.cpu.iq.issued_per_cycle::3             1047799      8.39%     82.22% # Number of insts issued each cycle
system.cpu.iq.issued_per_cycle::4              667786      5.35%     87.56% # Number of insts issued each cycle
system.cpu.iq.issued_per_cycle::5              612853      4.91%     92.47% # Number of insts issued each cycle
system.cpu.iq.issued_per_cycle::6              569155      4.56%     97.03% # Number of insts issued each cycle
system.cpu.iq.issued_per_cycle::7              195127      1.56%     98.59% # Number of insts issued each cycle
system.cpu.iq.issued_per_cycle::8              176456      1.41%    100.00% # Number of insts issued each cycle
system.cpu.iq.issued_per_cycle::overflows            0      0.00%    100.00% # Number of insts issued each cycle
system.cpu.iq.issued_per_cycle::min_value            0                       # Number of insts issued each cycle
system.cpu.iq.issued_per_cycle::max_value            8                       # Number of insts issued each cycle
system.cpu.iq.issued_per_cycle::total        12492578                       # Number of insts issued each cycle
system.cpu.iq.rate                           1.463667                       # Inst issue rate
system.cpu.iq.vec_alu_accesses                      0                       # Number of vector alu accesses
system.cpu.iq.vec_inst_queue_reads                  0                       # Number of vector instruction queue reads
system.cpu.iq.vec_inst_queue_wakeup_accesses            0                       # Number of vector instruction queue wakeup accesses
system.cpu.iq.vec_inst_queue_writes                 0                       # Number of vector instruction queue writes
system.cpu.memDep0.conflictingLoads            252762                       # Number of conflicting loads.
system.cpu.memDep0.conflictingStores            94509                       # Number of conflicting stores.
system.cpu.memDep0.insertedLoads              3268318                       # Number of loads inserted to the mem dependence unit.
system.cpu.memDep0.insertedStores             1616604                       # Number of stores inserted to the mem dependence unit.
system.cpu.misc_regfile_reads                 7492967                       # number of misc regfile reads
system.cpu.misc_regfile_writes                    702                       # number of misc regfile writes
system.cpu.numCycles                         12624676                       # number of cpu cycles simulated
system.cpu.numWorkItemsCompleted                    0                       # number of work items this cpu completed
system.cpu.numWorkItemsStarted                      0                       # number of work items this cpu started
system.cpu.timesIdled                            1500                       # Number of times that the entire CPU went into an idle state and unscheduled itself
system.cpu.workload.numSyscalls                    85                       # Number of system calls
system.membus.snoop_filter.hit_multi_requests            0                       # Number of requests hitting in the snoop filter with multiple (>1) holders of the requested data.
system.membus.snoop_filter.hit_multi_snoops            0                       # Number of snoops hitting in the snoop filter with multiple (>1) holders of the requested data.
system.membus.snoop_filter.hit_single_requests        38400                       # Number of requests hitting in the snoop filter with a single holder of the requested data.
system.membus.snoop_filter.hit_single_snoops            0                       # Number of snoops hitting in the snoop filter with a single holder of the requested data.
system.membus.snoop_filter.tot_requests         85434                       # Total number of requests made to the snoop filter.
system.membus.snoop_filter.tot_snoops               0                       # Total number of snoops made to the snoop filter.
system.tol2bus.snoop_filter.hit_multi_requests           23                       # Number of requests hitting in the snoop filter with multiple (>1) holders of the requested data.
system.tol2bus.snoop_filter.hit_multi_snoops            0                       # Number of snoops hitting in the snoop filter with multiple (>1) holders of the requested data.
system.tol2bus.snoop_filter.hit_single_requests        59441                       # Number of requests hitting in the snoop filter with a single holder of the requested data.
system.tol2bus.snoop_filter.hit_single_snoops          882                       # Number of snoops hitting in the snoop filter with a single holder of the requested data.
system.tol2bus.snoop_filter.tot_requests       119904                       # Total number of requests made to the snoop filter.
system.tol2bus.snoop_filter.tot_snoops            882                       # Total number of snoops made to the snoop filter.
system.clk_domain.clock                           250                       # Clock period in ticks
system.cpu.branchPred.lookups                 1985234                       # Number of BP lookups
system.cpu.branchPred.condPredicted           1474110                       # Number of conditional branches predicted
system.cpu.branchPred.condIncorrect             69465                       # Number of conditional branches incorrect
system.cpu.branchPred.BTBLookups              1008349                       # Number of BTB lookups
system.cpu.branchPred.BTBHits                 1006139                       # Number of BTB hits
system.cpu.branchPred.BTBHitPct             99.780830                       # BTB Hit Percentage
system.cpu.branchPred.RASUsed                  201364                       # Number of times the RAS was used to get a target.
system.cpu.branchPred.RASIncorrect                 17                       # Number of incorrect RAS predictions.
system.cpu.branchPred.indirectLookups           23658                       # Number of indirect predictor lookups.
system.cpu.branchPred.indirectHits              12724                       # Number of indirect target hits.
system.cpu.branchPred.indirectMisses            10934                       # Number of indirect misses.
system.cpu.branchPred.indirectMispredicted         1570                       # Number of mispredicted indirect branches.
system.cpu.commit.commitSquashedInsts         3836663                       # The number of squashed insts skipped by commit
system.cpu.commit.commitNonSpecStalls            1203                       # The number of times commit has been forced to stall to communicate backwards
system.cpu.commit.branchMispredicts             68904                       # The number of times a branch was mispredicted
system.cpu.commit.numCommittedDist::samples     11974766                       # Number of insts commited each cycle
system.cpu.commit.numCommittedDist::mean     1.337535                       # Number of insts commited each cycle
system.cpu.commit.numCommittedDist::stdev     2.221867                       # Number of insts commited each cycle
system.cpu.commit.numCommittedDist::underflows            0      0.00%      0.00% # Number of insts commited each cycle
system.cpu.commit.numCommittedDist::0         6961840     58.14%     58.14% # Number of insts commited each cycle
system.cpu.commit.numCommittedDist::1         1581087     13.20%     71.34% # Number of insts commited each cycle
system.cpu.commit.numCommittedDist::2         1120506      9.36%     80.70% # Number of insts commited each cycle
system.cpu.commit.numCommittedDist::3          819373      6.84%     87.54% # Number of insts commited each cycle
system.cpu.commit.numCommittedDist::4          156395      1.31%     88.85% # Number of insts commited each cycle
system.cpu.commit.numCommittedDist::5          413326      3.45%     92.30% # Number of insts commited each cycle
system.cpu.commit.numCommittedDist::6          123697      1.03%     93.33% # Number of insts commited each cycle
system.cpu.commit.numCommittedDist::7           86274      0.72%     94.05% # Number of insts commited each cycle
system.cpu.commit.numCommittedDist::8          712268      5.95%    100.00% # Number of insts commited each cycle
system.cpu.commit.numCommittedDist::overflows            0      0.00%    100.00% # Number of insts commited each cycle
system.cpu.commit.numCommittedDist::min_value            0                       # Number of insts commited each cycle
system.cpu.commit.numCommittedDist::max_value            8                       # Number of insts commited each cycle
system.cpu.commit.numCommittedDist::total     11974766                       # Number of insts commited each cycle
system.cpu.commit.instsCommitted             10000004                       # Number of instructions committed
system.cpu.commit.opsCommitted               16016672                       # Number of ops (including micro ops) committed
system.cpu.commit.memRefs                     4150461                       # Number of memory references committed
system.cpu.commit.loads                       2695202                       # Number of loads committed
system.cpu.commit.amos                              0                       # Number of atomic instructions committed
system.cpu.commit.membars                         334                       # Number of memory barriers committed
system.cpu.commit.branches                    1221874                       # Number of branches committed
system.cpu.commit.vector                            0                       # Number of committed Vector instructions.
system.cpu.commit.floating                     829848                       # Number of committed floating point instructions.
system.cpu.commit.integer                    15504649                       # Number of committed integer instructions.
system.cpu.commit.functionCalls                156974                       # Number of function calls committed.
system.cpu.commit.committedInstType_0::No_OpClass       177488      1.11%      1.11% # Class of committed instruction
system.cpu.commit.committedInstType_0::IntAlu     11214635     70.02%     71.13% # Class of committed instruction
system.cpu.commit.committedInstType_0::IntMult           38      0.00%     71.13% # Class of committed instruction
system.cpu.commit.committedInstType_0::IntDiv        40525      0.25%     71.38% # Class of committed instruction
system.cpu.commit.committedInstType_0::FloatAdd       128428      0.80%     72.18% # Class of committed instruction
system.cpu.commit.committedInstType_0::FloatCmp            0      0.00%     72.18% # Class of committed instruction
system.cpu.commit.committedInstType_0::FloatCvt         1248      0.01%     72.19% # Class of committed instruction
system.cpu.commit.committedInstType_0::FloatMult            0      0.00%     72.19% # Class of committed instruction
system.cpu.commit.committedInstType_0::FloatMultAcc            0      0.00%     72.19% # Class of committed instruction
system.cpu.commit.committedInstType_0::FloatDiv            0      0.00%     72.19% # Class of committed instruction
system.cpu.commit.committedInstType_0::FloatMisc            0      0.00%     72.19% # Class of committed instruction
system.cpu.commit.committedInstType_0::FloatSqrt            0      0.00%     72.19% # Class of committed instruction
system.cpu.commit.committedInstType_0::SimdAdd         7936      0.05%     72.24% # Class of committed instruction
system.cpu.commit.committedInstType_0::SimdAddAcc            0      0.00%     72.24% # Class of committed instruction
system.cpu.commit.committedInstType_0::SimdAlu        18147      0.11%     72.35% # Class of committed instruction
system.cpu.commit.committedInstType_0::SimdCmp            6      0.00%     72.35% # Class of committed instruction
system.cpu.commit.committedInstType_0::SimdCvt        16320      0.10%     72.45% # Class of committed instruction
system.cpu.commit.committedInstType_0::SimdMisc       253856      1.58%     74.04% # Class of committed instruction
system.cpu.commit.committedInstType_0::SimdMult            0      0.00%     74.04% # Class of committed instruction
system.cpu.commit.committedInstType_0::SimdMultAcc            0      0.00%     74.04% # Class of committed instruction
system.cpu.commit.committedInstType_0::SimdShift         2037      0.01%     74.05% # Class of committed instruction
system.cpu.commit.committedInstType_0::SimdShiftAcc            0      0.00%     74.05% # Class of committed instruction
system.cpu.commit.committedInstType_0::SimdDiv            0      0.00%     74.05% # Class of committed instruction
system.cpu.commit.committedInstType_0::SimdSqrt            0      0.00%     74.05% # Class of committed instruction
system.cpu.commit.committedInstType_0::SimdFloatAdd            0      0.00%     74.05% # Class of committed instruction
system.cpu.commit.committedInstType_0::SimdFloatAlu            0      0.00%     74.05% # Class of committed instruction
system.cpu.commit.committedInstType_0::SimdFloatCmp            0      0.00%     74.05% # Class of committed instruction
system.cpu.commit.committedInstType_0::SimdFloatCvt         3698      0.02%     74.08% # Class of committed instruction
system.cpu.commit.committedInstType_0::SimdFloatDiv            0      0.00%     74.08% # Class of committed instruction
system.cpu.commit.committedInstType_0::SimdFloatMisc            0      0.00%     74.08% # Class of committed instruction
system.cpu.commit.committedInstType_0::SimdFloatMult         1849      0.01%     74.09% # Class of committed instruction
system.cpu.commit.committedInstType_0::SimdFloatMultAcc            0      0.00%     74.09% # Class of committed instruction
system.cpu.commit.committedInstType_0::SimdFloatSqrt            0      0.00%     74.09% # Class of committed instruction
system.cpu.commit.committedInstType_0::SimdReduceAdd            0      0.00%     74.09% # Class of committed instruction
system.cpu.commit.committedInstType_0::SimdReduceAlu            0      0.00%     74.09% # Class of committed instruction
system.cpu.commit.committedInstType_0::SimdReduceCmp            0      0.00%     74.09% # Class of committed instruction
system.cpu.commit.committedInstType_0::SimdFloatReduceAdd            0      0.00%     74.09% # Class of committed instruction
system.cpu.commit.committedInstType_0::SimdFloatReduceCmp            0      0.00%     74.09% # Class of committed instruction
system.cpu.commit.committedInstType_0::SimdAes            0      0.00%     74.09% # Class of committed instruction
system.cpu.commit.committedInstType_0::SimdAesMix            0      0.00%     74.09% # Class of committed instruction
system.cpu.commit.committedInstType_0::SimdSha1Hash            0      0.00%     74.09% # Class of committed instruction
system.cpu.commit.committedInstType_0::SimdSha1Hash2            0      0.00%     74.09% # Class of committed instruction
system.cpu.commit.committedInstType_0::SimdSha256Hash            0      0.00%     74.09% # Class of committed instruction
system.cpu.commit.committedInstType_0::SimdSha256Hash2            0      0.00%     74.09% # Class of committed instruction
system.cpu.commit.committedInstType_0::SimdShaSigma2            0      0.00%     74.09% # Class of committed instruction
system.cpu.commit.committedInstType_0::SimdShaSigma3            0      0.00%     74.09% # Class of committed instruction
system.cpu.commit.committedInstType_0::SimdPredAlu            0      0.00%     74.09% # Class of committed instruction
system.cpu.commit.committedInstType_0::MemRead      2669945     16.67%     90.76% # Class of committed instruction
system.cpu.commit.committedInstType_0::MemWrite      1117553      6.98%     97.73% # Class of committed instruction
system.cpu.commit.committedInstType_0::FloatMemRead        25257      0.16%     97.89% # Class of committed instruction
system.cpu.commit.committedInstType_0::FloatMemWrite       337706      2.11%    100.00% # Class of committed instruction
system.cpu.commit.committedInstType_0::IprAccess            0      0.00%    100.00% # Class of committed instruction
system.cpu.commit.committedInstType_0::InstPrefetch            0      0.00%    100.00% # Class of committed instruction
system.cpu.commit.committedInstType_0::total     16016672                       # Class of committed instruction
system.cpu.commit.commitEligibleSamples        712268                       # number cycles where commit BW limit reached
system.cpu.dcache.demand_hits::.cpu.data      3511067                       # number of demand (read+write) hits
system.cpu.dcache.demand_hits::total          3511067                       # number of demand (read+write) hits
system.cpu.dcache.overall_hits::.cpu.data      3511067                       # number of overall hits
system.cpu.dcache.overall_hits::total         3511067                       # number of overall hits
system.cpu.dcache.demand_misses::.cpu.data       102689                       # number of demand (read+write) misses
system.cpu.dcache.demand_misses::total         102689                       # number of demand (read+write) misses
system.cpu.dcache.overall_misses::.cpu.data       102689                       # number of overall misses
system.cpu.dcache.overall_misses::total        102689                       # number of overall misses
system.cpu.dcache.demand_miss_latency::.cpu.data   5676071995                       # number of demand (read+write) miss cycles
system.cpu.dcache.demand_miss_latency::total   5676071995                       # number of demand (read+write) miss cycles
system.cpu.dcache.overall_miss_latency::.cpu.data   5676071995                       # number of overall miss cycles
system.cpu.dcache.overall_miss_latency::total   5676071995                       # number of overall miss cycles
system.cpu.dcache.demand_accesses::.cpu.data      3613756                       # number of demand (read+write) accesses
system.cpu.dcache.demand_accesses::total      3613756                       # number of demand (read+write) accesses
system.cpu.dcache.overall_accesses::.cpu.data      3613756                       # number of overall (read+write) accesses
system.cpu.dcache.overall_accesses::total      3613756                       # number of overall (read+write) accesses
system.cpu.dcache.demand_miss_rate::.cpu.data     0.028416                       # miss rate for demand accesses
system.cpu.dcache.demand_miss_rate::total     0.028416                       # miss rate for demand accesses
system.cpu.dcache.overall_miss_rate::.cpu.data     0.028416                       # miss rate for overall accesses
system.cpu.dcache.overall_miss_rate::total     0.028416                       # miss rate for overall accesses
system.cpu.dcache.demand_avg_miss_latency::.cpu.data 55274.391561                       # average overall miss latency
system.cpu.dcache.demand_avg_miss_latency::total 55274.391561                       # average overall miss latency
system.cpu.dcache.overall_avg_miss_latency::.cpu.data 55274.391561                       # average overall miss latency
system.cpu.dcache.overall_avg_miss_latency::total 55274.391561                       # average overall miss latency
system.cpu.dcache.blocked_cycles::no_mshrs        27836                       # number of cycles access was blocked
system.cpu.dcache.blocked_cycles::no_targets          248                       # number of cycles access was blocked
system.cpu.dcache.blocked::no_mshrs               773                       # number of cycles access was blocked
system.cpu.dcache.blocked::no_targets              34                       # number of cycles access was blocked
system.cpu.dcache.avg_blocked_cycles::no_mshrs    36.010349                       # average number of cycles each access was blocked
system.cpu.dcache.avg_blocked_cycles::no_targets     7.294118                       # average number of cycles each access was blocked
system.cpu.dcache.writebacks::.writebacks        41548                       # number of writebacks
system.cpu.dcache.writebacks::total             41548                       # number of writebacks
system.cpu.dcache.demand_mshr_hits::.cpu.data        44808                       # number of demand (read+write) MSHR hits
system.cpu.dcache.demand_mshr_hits::total        44808                       # number of demand (read+write) MSHR hits
system.cpu.dcache.overall_mshr_hits::.cpu.data        44808                       # number of overall MSHR hits
system.cpu.dcache.overall_mshr_hits::total        44808                       # number of overall MSHR hits
system.cpu.dcache.demand_mshr_misses::.cpu.data        57881                       # number of demand (read+write) MSHR misses
system.cpu.dcache.demand_mshr_misses::total        57881                       # number of demand (read+write) MSHR misses
system.cpu.dcache.overall_mshr_misses::.cpu.data        57881                       # number of overall MSHR misses
system.cpu.dcache.overall_mshr_misses::total        57881                       # number of overall MSHR misses
system.cpu.dcache.demand_mshr_miss_latency::.cpu.data   3447843995                       # number of demand (read+write) MSHR miss cycles
system.cpu.dcache.demand_mshr_miss_latency::total   3447843995                       # number of demand (read+write) MSHR miss cycles
system.cpu.dcache.overall_mshr_miss_latency::.cpu.data   3447843995                       # number of overall MSHR miss cycles
system.cpu.dcache.overall_mshr_miss_latency::total   3447843995                       # number of overall MSHR miss cycles
system.cpu.dcache.demand_mshr_miss_rate::.cpu.data     0.016017                       # mshr miss rate for demand accesses
system.cpu.dcache.demand_mshr_miss_rate::total     0.016017                       # mshr miss rate for demand accesses
system.cpu.dcache.overall_mshr_miss_rate::.cpu.data     0.016017                       # mshr miss rate for overall accesses
system.cpu.dcache.overall_mshr_miss_rate::total     0.016017                       # mshr miss rate for overall accesses
system.cpu.dcache.demand_avg_mshr_miss_latency::.cpu.data 59567.802820                       # average overall mshr miss latency
system.cpu.dcache.demand_avg_mshr_miss_latency::total 59567.802820                       # average overall mshr miss latency
system.cpu.dcache.overall_avg_mshr_miss_latency::.cpu.data 59567.802820                       # average overall mshr miss latency
system.cpu.dcache.overall_avg_mshr_miss_latency::total 59567.802820                       # average overall mshr miss latency
system.cpu.dcache.replacements                  57369                       # number of replacements
system.cpu.dcache.ReadReq_hits::.cpu.data      2092654                       # number of ReadReq hits
system.cpu.dcache.ReadReq_hits::total         2092654                       # number of ReadReq hits
system.cpu.dcache.ReadReq_misses::.cpu.data        65840                       # number of ReadReq misses
system.cpu.dcache.ReadReq_misses::total         65840                       # number of ReadReq misses
system.cpu.dcache.ReadReq_miss_latency::.cpu.data   3028211500                       # number of ReadReq miss cycles
system.cpu.dcache.ReadReq_miss_latency::total   3028211500                       # number of ReadReq miss cycles
system.cpu.dcache.ReadReq_accesses::.cpu.data      2158494                       # number of ReadReq accesses(hits+misses)
system.cpu.dcache.ReadReq_accesses::total      2158494                       # number of ReadReq accesses(hits+misses)
system.cpu.dcache.ReadReq_miss_rate::.cpu.data     0.030503                       # miss rate for ReadReq accesses
system.cpu.dcache.ReadReq_miss_rate::total     0.030503                       # miss rate for ReadReq accesses
system.cpu.dcache.ReadReq_avg_miss_latency::.cpu.data 45993.491798                       # average ReadReq miss latency
system.cpu.dcache.ReadReq_avg_miss_latency::total 45993.491798                       # average ReadReq miss latency
system.cpu.dcache.ReadReq_mshr_hits::.cpu.data        44796                       # number of ReadReq MSHR hits
system.cpu.dcache.ReadReq_mshr_hits::total        44796                       # number of ReadReq MSHR hits
system.cpu.dcache.ReadReq_mshr_misses::.cpu.data        21044                       # number of ReadReq MSHR misses
system.cpu.dcache.ReadReq_mshr_misses::total        21044                       # number of ReadReq MSHR misses
system.cpu.dcache.ReadReq_mshr_miss_latency::.cpu.data    837310500                       # number of ReadReq MSHR miss cycles
system.cpu.dcache.ReadReq_mshr_miss_latency::total    837310500                       # number of ReadReq MSHR miss cycles
system.cpu.dcache.ReadReq_mshr_miss_rate::.cpu.data     0.009749                       # mshr miss rate for ReadReq accesses
system.cpu.dcache.ReadReq_mshr_miss_rate::total     0.009749                       # mshr miss rate for ReadReq accesses
system.cpu.dcache.ReadReq_avg_mshr_miss_latency::.cpu.data 39788.562060                       # average ReadReq mshr miss latency
system.cpu.dcache.ReadReq_avg_mshr_miss_latency::total 39788.562060                       # average ReadReq mshr miss latency
system.cpu.dcache.WriteReq_hits::.cpu.data      1418413                       # number of WriteReq hits
system.cpu.dcache.WriteReq_hits::total        1418413                       # number of WriteReq hits
system.cpu.dcache.WriteReq_misses::.cpu.data        36849                       # number of WriteReq misses
system.cpu.dcache.WriteReq_misses::total        36849                       # number of WriteReq misses
system.cpu.dcache.WriteReq_miss_latency::.cpu.data   2647860495                       # number of WriteReq miss cycles
system.cpu.dcache.WriteReq_miss_latency::total   2647860495                       # number of WriteReq miss cycles
system.cpu.dcache.WriteReq_accesses::.cpu.data      1455262                       # number of WriteReq accesses(hits+misses)
system.cpu.dcache.WriteReq_accesses::total      1455262                       # number of WriteReq accesses(hits+misses)
system.cpu.dcache.WriteReq_miss_rate::.cpu.data     0.025321                       # miss rate for WriteReq accesses
system.cpu.dcache.WriteReq_miss_rate::total     0.025321                       # miss rate for WriteReq accesses
system.cpu.dcache.WriteReq_avg_miss_latency::.cpu.data 71857.051616                       # average WriteReq miss latency
system.cpu.dcache.WriteReq_avg_miss_latency::total 71857.051616                       # average WriteReq miss latency
system.cpu.dcache.WriteReq_mshr_hits::.cpu.data           12                       # number of WriteReq MSHR hits
system.cpu.dcache.WriteReq_mshr_hits::total           12                       # number of WriteReq MSHR hits
system.cpu.dcache.WriteReq_mshr_misses::.cpu.data        36837                       # number of WriteReq MSHR misses
system.cpu.dcache.WriteReq_mshr_misses::total        36837                       # number of WriteReq MSHR misses
system.cpu.dcache.WriteReq_mshr_miss_latency::.cpu.data   2610533495                       # number of WriteReq MSHR miss cycles
system.cpu.dcache.WriteReq_mshr_miss_latency::total   2610533495                       # number of WriteReq MSHR miss cycles
system.cpu.dcache.WriteReq_mshr_miss_rate::.cpu.data     0.025313                       # mshr miss rate for WriteReq accesses
system.cpu.dcache.WriteReq_mshr_miss_rate::total     0.025313                       # mshr miss rate for WriteReq accesses
system.cpu.dcache.WriteReq_avg_mshr_miss_latency::.cpu.data 70867.157885                       # average WriteReq mshr miss latency
system.cpu.dcache.WriteReq_avg_mshr_miss_latency::total 70867.157885                       # average WriteReq mshr miss latency
system.cpu.dcache.power_state.pwrStateResidencyTicks::UNDEFINED   6312337500                       # Cumulative time (in ticks) in various power states
system.cpu.dcache.tags.tagsinuse           509.184843                       # Cycle average of tags in use
system.cpu.dcache.tags.total_refs             3568948                       # Total number of references to valid blocks.
system.cpu.dcache.tags.sampled_refs             57881                       # Sample count of references to valid blocks.
system.cpu.dcache.tags.avg_refs             61.660096                       # Average number of references to valid blocks.
system.cpu.dcache.tags.warmup_cycle            163000                       # Cycle when the warmup percentage was hit.
system.cpu.dcache.tags.occ_blocks::.cpu.data   509.184843                       # Average occupied blocks per requestor
system.cpu.dcache.tags.occ_percent::.cpu.data     0.994502                       # Average percentage of cache occupancy
system.cpu.dcache.tags.occ_percent::total     0.994502                       # Average percentage of cache occupancy
system.cpu.dcache.tags.occ_task_id_blocks::1024          512                       # Occupied blocks per task id
system.cpu.dcache.tags.age_task_id_blocks_1024::0            9                       # Occupied blocks per task id
system.cpu.dcache.tags.age_task_id_blocks_1024::1           44                       # Occupied blocks per task id
system.cpu.dcache.tags.age_task_id_blocks_1024::2          155                       # Occupied blocks per task id
system.cpu.dcache.tags.age_task_id_blocks_1024::3          304                       # Occupied blocks per task id
system.cpu.dcache.tags.occ_task_id_percent::1024            1                       # Percentage of cache occupancy per task id
system.cpu.dcache.tags.tag_accesses           7285393                       # Number of tag accesses
system.cpu.dcache.tags.data_accesses          7285393                       # Number of data accesses
system.cpu.dcache.tags.power_state.pwrStateResidencyTicks::UNDEFINED   6312337500                       # Cumulative time (in ticks) in various power states
system.cpu.decode.idleCycles                  1213514                       # Number of cycles decode is idle
system.cpu.decode.blockedCycles               8319372                       # Number of cycles decode is blocked
system.cpu.decode.runCycles                   2087965                       # Number of cycles decode is running
system.cpu.decode.unblockCycles                801623                       # Number of cycles decode is unblocking
system.cpu.decode.squashCycles                  70104                       # Number of cycles decode is squashing
system.cpu.decode.branchResolved               961166                       # Number of times decode resolved a  branch
system.cpu.decode.branchMispred                  1559                       # Number of times decode detected a branch misprediction
system.cpu.decode.decodedInsts               20838232                       # Number of instructions handled by decode
system.cpu.decode.squashedInsts                  7870                       # Number of squashed instructions handled by decode
system.cpu.dtb.rdAccesses                     3000674                       # TLB accesses on read requests
system.cpu.dtb.wrAccesses                     1566465                       # TLB accesses on write requests
system.cpu.dtb.rdMisses                          3006                       # TLB misses on read requests
system.cpu.dtb.wrMisses                         16722                       # TLB misses on write requests
system.cpu.dtb.walker.power_state.pwrStateResidencyTicks::UNDEFINED   6312337500                       # Cumulative time (in ticks) in various power states
system.cpu.dtb_walker_cache.blocked_cycles::no_mshrs            0                       # number of cycles access was blocked
system.cpu.dtb_walker_cache.blocked_cycles::no_targets            0                       # number of cycles access was blocked
system.cpu.dtb_walker_cache.blocked::no_mshrs            0                       # number of cycles access was blocked
system.cpu.dtb_walker_cache.blocked::no_targets            0                       # number of cycles access was blocked
system.cpu.dtb_walker_cache.avg_blocked_cycles::no_mshrs          nan                       # average number of cycles each access was blocked
system.cpu.dtb_walker_cache.avg_blocked_cycles::no_targets          nan                       # average number of cycles each access was blocked
system.cpu.dtb_walker_cache.replacements            0                       # number of replacements
system.cpu.dtb_walker_cache.power_state.pwrStateResidencyTicks::UNDEFINED   6312337500                       # Cumulative time (in ticks) in various power states
system.cpu.dtb_walker_cache.tags.tagsinuse            0                       # Cycle average of tags in use
system.cpu.dtb_walker_cache.tags.total_refs            0                       # Total number of references to valid blocks.
system.cpu.dtb_walker_cache.tags.sampled_refs            0                       # Sample count of references to valid blocks.
system.cpu.dtb_walker_cache.tags.avg_refs          nan                       # Average number of references to valid blocks.
system.cpu.dtb_walker_cache.tags.warmup_cycle            0                       # Cycle when the warmup percentage was hit.
system.cpu.dtb_walker_cache.tags.tag_accesses            0                       # Number of tag accesses
system.cpu.dtb_walker_cache.tags.data_accesses            0                       # Number of data accesses
system.cpu.dtb_walker_cache.tags.power_state.pwrStateResidencyTicks::UNDEFINED   6312337500                       # Cumulative time (in ticks) in various power states
system.cpu.fetch.icacheStallCycles            1349181                       # Number of cycles fetch is stalled on an Icache miss
system.cpu.fetch.insts                       13008878                       # Number of instructions fetch has processed
system.cpu.fetch.branches                     1985234                       # Number of branches that fetch encountered
system.cpu.fetch.predictedBranches            1220227                       # Number of branches that fetch has predicted taken
system.cpu.fetch.cycles                      11063483                       # Number of cycles fetch has run and was not squashing or blocked
system.cpu.fetch.squashCycles                  143216                       # Number of cycles fetch has spent squashing
system.cpu.fetch.miscStallCycles                 1027                       # Number of cycles fetch has spent waiting on interrupts,or bad addresses, or out of MSHRs
system.cpu.fetch.pendingTrapStallCycles          7168                       # Number of stall cycles due to pending traps
system.cpu.fetch.pendingQuiesceStallCycles           57                       # Number of stall cycles due to pending quiesce instructions
system.cpu.fetch.icacheWaitRetryStallCycles           54                       # Number of stall cycles due to full MSHR
system.cpu.fetch.cacheLines                   1237993                       # Number of cache lines fetched
system.cpu.fetch.icacheSquashes                 15659                       # Number of outstanding Icache misses that were squashed
system.cpu.fetch.nisnDist::samples           12492578                       # Number of instructions fetched each cycle (Total)
system.cpu.fetch.nisnDist::mean              1.724272                       # Number of instructions fetched each cycle (Total)
system.cpu.fetch.nisnDist::stdev             3.018611                       # Number of instructions fetched each cycle (Total)
system.cpu.fetch.nisnDist::underflows               0      0.00%      0.00% # Number of instructions fetched each cycle (Total)
system.cpu.fetch.nisnDist::0                  8961816     71.74%     71.74% # Number of instructions fetched each cycle (Total)
system.cpu.fetch.nisnDist::1                   158477      1.27%     73.01% # Number of instructions fetched each cycle (Total)
system.cpu.fetch.nisnDist::2                   313067      2.51%     75.51% # Number of instructions fetched each cycle (Total)
system.cpu.fetch.nisnDist::3                   193086      1.55%     77.06% # Number of instructions fetched each cycle (Total)
system.cpu.fetch.nisnDist::4                   295474      2.37%     79.42% # Number of instructions fetched each cycle (Total)
system.cpu.fetch.nisnDist::5                   237289      1.90%     81.32% # Number of instructions fetched each cycle (Total)
system.cpu.fetch.nisnDist::6                   354428      2.84%     84.16% # Number of instructions fetched each cycle (Total)
system.cpu.fetch.nisnDist::7                   149708      1.20%     85.36% # Number of instructions fetched each cycle (Total)
system.cpu.fetch.nisnDist::8                  1829233     14.64%    100.00% # Number of instructions fetched each cycle (Total)
system.cpu.fetch.nisnDist::overflows                0      0.00%    100.00% # Number of instructions fetched each cycle (Total)
system.cpu.fetch.nisnDist::min_value                0                       # Number of instructions fetched each cycle (Total)
system.cpu.fetch.nisnDist::max_value                8                       # Number of instructions fetched each cycle (Total)
system.cpu.fetch.nisnDist::total             12492578                       # Number of instructions fetched each cycle (Total)
system.cpu.fetch.branchRate                  0.157250                       # Number of branch fetches per cycle
system.cpu.fetch.rate                        1.030433                       # Number of inst fetches per cycle
system.cpu.icache.demand_hits::.cpu.inst      1234436                       # number of demand (read+write) hits
system.cpu.icache.demand_hits::total          1234436                       # number of demand (read+write) hits
system.cpu.icache.overall_hits::.cpu.inst      1234436                       # number of overall hits
system.cpu.icache.overall_hits::total         1234436                       # number of overall hits
system.cpu.icache.demand_misses::.cpu.inst         3555                       # number of demand (read+write) misses
system.cpu.icache.demand_misses::total           3555                       # number of demand (read+write) misses
system.cpu.icache.overall_misses::.cpu.inst         3555                       # number of overall misses
system.cpu.icache.overall_misses::total          3555                       # number of overall misses
system.cpu.icache.demand_miss_latency::.cpu.inst    205564500                       # number of demand (read+write) miss cycles
system.cpu.icache.demand_miss_latency::total    205564500                       # number of demand (read+write) miss cycles
system.cpu.icache.overall_miss_latency::.cpu.inst    205564500                       # number of overall miss cycles
system.cpu.icache.overall_miss_latency::total    205564500                       # number of overall miss cycles
system.cpu.icache.demand_accesses::.cpu.inst      1237991                       # number of demand (read+write) accesses
system.cpu.icache.demand_accesses::total      1237991                       # number of demand (read+write) accesses
system.cpu.icache.overall_accesses::.cpu.inst      1237991                       # number of overall (read+write) accesses
system.cpu.icache.overall_accesses::total      1237991                       # number of overall (read+write) accesses
system.cpu.icache.demand_miss_rate::.cpu.inst     0.002872                       # miss rate for demand accesses
system.cpu.icache.demand_miss_rate::total     0.002872                       # miss rate for demand accesses
system.cpu.icache.overall_miss_rate::.cpu.inst     0.002872                       # miss rate for overall accesses
system.cpu.icache.overall_miss_rate::total     0.002872                       # miss rate for overall accesses
system.cpu.icache.demand_avg_miss_latency::.cpu.inst 57824.050633                       # average overall miss latency
system.cpu.icache.demand_avg_miss_latency::total 57824.050633                       # average overall miss latency
system.cpu.icache.overall_avg_miss_latency::.cpu.inst 57824.050633                       # average overall miss latency
system.cpu.icache.overall_avg_miss_latency::total 57824.050633                       # average overall miss latency
system.cpu.icache.blocked_cycles::no_mshrs          480                       # number of cycles access was blocked
system.cpu.icache.blocked_cycles::no_targets            0                       # number of cycles access was blocked
system.cpu.icache.blocked::no_mshrs                14                       # number of cycles access was blocked
system.cpu.icache.blocked::no_targets               0                       # number of cycles access was blocked
system.cpu.icache.avg_blocked_cycles::no_mshrs    34.285714                       # average number of cycles each access was blocked
system.cpu.icache.avg_blocked_cycles::no_targets          nan                       # average number of cycles each access was blocked
system.cpu.icache.writebacks::.writebacks         2072                       # number of writebacks
system.cpu.icache.writebacks::total              2072                       # number of writebacks
system.cpu.icache.demand_mshr_hits::.cpu.inst          973                       # number of demand (read+write) MSHR hits
system.cpu.icache.demand_mshr_hits::total          973                       # number of demand (read+write) MSHR hits
system.cpu.icache.overall_mshr_hits::.cpu.inst          973                       # number of overall MSHR hits
system.cpu.icache.overall_mshr_hits::total          973                       # number of overall MSHR hits
system.cpu.icache.demand_mshr_misses::.cpu.inst         2582                       # number of demand (read+write) MSHR misses
system.cpu.icache.demand_mshr_misses::total         2582                       # number of demand (read+write) MSHR misses
system.cpu.icache.overall_mshr_misses::.cpu.inst         2582                       # number of overall MSHR misses
system.cpu.icache.overall_mshr_misses::total         2582                       # number of overall MSHR misses
system.cpu.icache.demand_mshr_miss_latency::.cpu.inst    158670000                       # number of demand (read+write) MSHR miss cycles
system.cpu.icache.demand_mshr_miss_latency::total    158670000                       # number of demand (read+write) MSHR miss cycles
system.cpu.icache.overall_mshr_miss_latency::.cpu.inst    158670000                       # number of overall MSHR miss cycles
system.cpu.icache.overall_mshr_miss_latency::total    158670000                       # number of overall MSHR miss cycles
system.cpu.icache.demand_mshr_miss_rate::.cpu.inst     0.002086                       # mshr miss rate for demand accesses
system.cpu.icache.demand_mshr_miss_rate::total     0.002086                       # mshr miss rate for demand accesses
system.cpu.icache.overall_mshr_miss_rate::.cpu.inst     0.002086                       # mshr miss rate for overall accesses
system.cpu.icache.overall_mshr_miss_rate::total     0.002086                       # mshr miss rate for overall accesses
system.cpu.icache.demand_avg_mshr_miss_latency::.cpu.inst 61452.362510                       # average overall mshr miss latency
system.cpu.icache.demand_avg_mshr_miss_latency::total 61452.362510                       # average overall mshr miss latency
system.cpu.icache.overall_avg_mshr_miss_latency::.cpu.inst 61452.362510                       # average overall mshr miss latency
system.cpu.icache.overall_avg_mshr_miss_latency::total 61452.362510                       # average overall mshr miss latency
system.cpu.icache.replacements                   2072                       # number of replacements
system.cpu.icache.ReadReq_hits::.cpu.inst      1234436                       # number of ReadReq hits
system.cpu.icache.ReadReq_hits::total         1234436                       # number of ReadReq hits
system.cpu.icache.ReadReq_misses::.cpu.inst         3555                       # number of ReadReq misses
system.cpu.icache.ReadReq_misses::total          3555                       # number of ReadReq misses
system.cpu.icache.ReadReq_miss_latency::.cpu.inst    205564500                       # number of ReadReq miss cycles
system.cpu.icache.ReadReq_miss_latency::total    205564500                       # number of ReadReq miss cycles
system.cpu.icache.ReadReq_accesses::.cpu.inst      1237991                       # number of ReadReq accesses(hits+misses)
system.cpu.icache.ReadReq_accesses::total      1237991                       # number of ReadReq accesses(hits+misses)
system.cpu.icache.ReadReq_miss_rate::.cpu.inst     0.002872                       # miss rate for ReadReq accesses
system.cpu.icache.ReadReq_miss_rate::total     0.002872                       # miss rate for ReadReq accesses
system.cpu.icache.ReadReq_avg_miss_latency::.cpu.inst 57824.050633                       # average ReadReq miss latency
system.cpu.icache.ReadReq_avg_miss_latency::total 57824.050633                       # average ReadReq miss latency
system.cpu.icache.ReadReq_mshr_hits::.cpu.inst          973                       # number of ReadReq MSHR hits
system.cpu.icache.ReadReq_mshr_hits::total          973                       # number of ReadReq MSHR hits
system.cpu.icache.ReadReq_mshr_misses::.cpu.inst         2582                       # number of ReadReq MSHR misses
system.cpu.icache.ReadReq_mshr_misses::total         2582                       # number of ReadReq MSHR misses
system.cpu.icache.ReadReq_mshr_miss_latency::.cpu.inst    158670000                       # number of ReadReq MSHR miss cycles
system.cpu.icache.ReadReq_mshr_miss_latency::total    158670000                       # number of ReadReq MSHR miss cycles
system.cpu.icache.ReadReq_mshr_miss_rate::.cpu.inst     0.002086                       # mshr miss rate for ReadReq accesses
system.cpu.icache.ReadReq_mshr_miss_rate::total     0.002086                       # mshr miss rate for ReadReq accesses
system.cpu.icache.ReadReq_avg_mshr_miss_latency::.cpu.inst 61452.362510                       # average ReadReq mshr miss latency
system.cpu.icache.ReadReq_avg_mshr_miss_latency::total 61452.362510                       # average ReadReq mshr miss latency
system.cpu.icache.power_state.pwrStateResidencyTicks::UNDEFINED   6312337500                       # Cumulative time (in ticks) in various power states
system.cpu.icache.tags.tagsinuse           502.903869                       # Cycle average of tags in use
system.cpu.icache.tags.total_refs             1237018                       # Total number of references to valid blocks.
system.cpu.icache.tags.sampled_refs              2582                       # Sample count of references to valid blocks.
system.cpu.icache.tags.avg_refs            479.092951                       # Average number of references to valid blocks.
system.cpu.icache.tags.warmup_cycle             79500                       # Cycle when the warmup percentage was hit.
system.cpu.icache.tags.occ_blocks::.cpu.inst   502.903869                       # Average occupied blocks per requestor
system.cpu.icache.tags.occ_percent::.cpu.inst     0.982234                       # Average percentage of cache occupancy
system.cpu.icache.tags.occ_percent::total     0.982234                       # Average percentage of cache occupancy
system.cpu.icache.tags.occ_task_id_blocks::1024          510                       # Occupied blocks per task id
system.cpu.icache.tags.age_task_id_blocks_1024::3          510                       # Occupied blocks per task id
system.cpu.icache.tags.occ_task_id_percent::1024     0.996094                       # Percentage of cache occupancy per task id
system.cpu.icache.tags.tag_accesses           2478564                       # Number of tag accesses
system.cpu.icache.tags.data_accesses          2478564                       # Number of data accesses
system.cpu.icache.tags.power_state.pwrStateResidencyTicks::UNDEFINED   6312337500                       # Cumulative time (in ticks) in various power states
system.cpu.interrupts.clk_domain.clock           8000                       # Clock period in ticks
system.cpu.itb.rdAccesses                           0                       # TLB accesses on read requests
system.cpu.itb.wrAccesses                     1239132                       # TLB accesses on write requests
system.cpu.itb.rdMisses                             0                       # TLB misses on read requests
system.cpu.itb.wrMisses                          1472                       # TLB misses on write requests
system.cpu.itb.walker.power_state.pwrStateResidencyTicks::UNDEFINED   6312337500                       # Cumulative time (in ticks) in various power states
system.cpu.itb_walker_cache.blocked_cycles::no_mshrs            0                       # number of cycles access was blocked
system.cpu.itb_walker_cache.blocked_cycles::no_targets            0                       # number of cycles access was blocked
system.cpu.itb_walker_cache.blocked::no_mshrs            0                       # number of cycles access was blocked
system.cpu.itb_walker_cache.blocked::no_targets            0                       # number of cycles access was blocked
system.cpu.itb_walker_cache.avg_blocked_cycles::no_mshrs          nan                       # average number of cycles each access was blocked
system.cpu.itb_walker_cache.avg_blocked_cycles::no_targets          nan                       # average number of cycles each access was blocked
system.cpu.itb_walker_cache.replacements            0                       # number of replacements
system.cpu.itb_walker_cache.power_state.pwrStateResidencyTicks::UNDEFINED   6312337500                       # Cumulative time (in ticks) in various power states
system.cpu.itb_walker_cache.tags.tagsinuse            0                       # Cycle average of tags in use
system.cpu.itb_walker_cache.tags.total_refs            0                       # Total number of references to valid blocks.
system.cpu.itb_walker_cache.tags.sampled_refs            0                       # Sample count of references to valid blocks.
system.cpu.itb_walker_cache.tags.avg_refs          nan                       # Average number of references to valid blocks.
system.cpu.itb_walker_cache.tags.warmup_cycle            0                       # Cycle when the warmup percentage was hit.
system.cpu.itb_walker_cache.tags.tag_accesses            0                       # Number of tag accesses
system.cpu.itb_walker_cache.tags.data_accesses            0                       # Number of data accesses
system.cpu.itb_walker_cache.tags.power_state.pwrStateResidencyTicks::UNDEFINED   6312337500                       # Cumulative time (in ticks) in various power states
system.cpu.lsq0.forwLoads                      840527                       # Number of loads that had data forwarded from stores
system.cpu.lsq0.squashedLoads                  573099                       # Number of loads squashed
system.cpu.lsq0.ignoredResponses                 8672                       # Number of memory responses ignored because the instruction is squashed
system.cpu.lsq0.memOrderViolation                 327                       # Number of memory ordering violations
system.cpu.lsq0.squashedStores                 161335                       # Number of stores squashed
system.cpu.lsq0.rescheduledLoads                    7                       # Number of loads that were rescheduled
system.cpu.lsq0.blockedByCache                    620                       # Number of times an access to memory failed due to the cache being blocked
system.cpu.power_state.pwrStateResidencyTicks::ON   6312337500                       # Cumulative time (in ticks) in various power states
system.cpu.rename.squashCycles                  70104                       # Number of cycles rename is squashing
system.cpu.rename.idleCycles                  1539862                       # Number of cycles rename is idle
system.cpu.rename.blockCycles                 3764815                       # Number of cycles rename is blocking
system.cpu.rename.serializeStallCycles          12987                       # count of cycles rename stalledfor serializing inst
system.cpu.rename.runCycles                   2544052                       # Number of cycles rename is running
system.cpu.rename.unblockCycles               4560758                       # Number of cycles rename is unblocking
system.cpu.rename.renamedInsts               20477472                       # Number of instructions processed by rename
system.cpu.rename.ROBFullEvents                  9908                       # Number of times rename has blocked due to ROB full
system.cpu.rename.IQFullEvents                 818647                       # Number of times rename has blocked due to IQ full
system.cpu.rename.LQFullEvents                 734886                       # Number of times rename has blocked due to LQ full
system.cpu.rename.SQFullEvents                2980173                       # Number of times rename has blocked due to SQ full
system.cpu.rename.fullRegistersEvents              58                       # Number of times there has been no free registers
system.cpu.rename.renamedOperands            26574125                       # Number of destination operands rename has renamed
system.cpu.rename.lookups                    55122265                       # Number of register rename lookups that rename has made
system.cpu.rename.intLookups                 33858080                       # Number of integer rename lookups
system.cpu.rename.fpLookups                   1084415                       # Number of floating rename lookups
system.cpu.rename.committedMaps              21428780                       # Number of HB maps that are committed
system.cpu.rename.undoneMaps                  5145247                       # Number of HB maps that are undone due to squashing
system.cpu.rename.serializing                     765                       # count of serializing insts renamed
system.cpu.rename.tempSerializing                 720                       # count of temporary serializing insts renamed
system.cpu.rename.skidInsts                   3953973                       # count of insts added to the skid buffer
system.cpu.rob.reads                         31103301                       # The number of ROB reads
system.cpu.rob.writes                        40226216                       # The number of ROB writes
system.cpu.thread_0.numInsts                 10000004                       # Number of Instructions committed
system.cpu.thread_0.numOps                   16016672                       # Number of Ops committed
system.cpu.thread_0.numMemRefs                      0                       # Number of Memory References
system.cpu_clk_domain.clock                       500                       # Clock period in ticks
system.cpu_voltage_domain.voltage                   1                       # Voltage in Volts
system.l2.demand_hits::.cpu.inst                  474                       # number of demand (read+write) hits
system.l2.demand_hits::.cpu.data                12952                       # number of demand (read+write) hits
system.l2.demand_hits::total                    13426                       # number of demand (read+write) hits
system.l2.overall_hits::.cpu.inst                 474                       # number of overall hits
system.l2.overall_hits::.cpu.data               12952                       # number of overall hits
system.l2.overall_hits::total                   13426                       # number of overall hits
system.l2.demand_misses::.cpu.inst               2105                       # number of demand (read+write) misses
system.l2.demand_misses::.cpu.data              44929                       # number of demand (read+write) misses
system.l2.demand_misses::total                  47034                       # number of demand (read+write) misses
system.l2.overall_misses::.cpu.inst              2105                       # number of overall misses
system.l2.overall_misses::.cpu.data             44929                       # number of overall misses
system.l2.overall_misses::total                 47034                       # number of overall misses
system.l2.demand_miss_latency::.cpu.inst    149645500                       # number of demand (read+write) miss cycles
system.l2.demand_miss_latency::.cpu.data   3222821500                       # number of demand (read+write) miss cycles
system.l2.demand_miss_latency::total       3372467000                       # number of demand (read+write) miss cycles
system.l2.overall_miss_latency::.cpu.inst    149645500                       # number of overall miss cycles
system.l2.overall_miss_latency::.cpu.data   3222821500                       # number of overall miss cycles
system.l2.overall_miss_latency::total      3372467000                       # number of overall miss cycles
system.l2.demand_accesses::.cpu.inst             2579                       # number of demand (read+write) accesses
system.l2.demand_accesses::.cpu.data            57881                       # number of demand (read+write) accesses
system.l2.demand_accesses::total                60460                       # number of demand (read+write) accesses
system.l2.overall_accesses::.cpu.inst            2579                       # number of overall (read+write) accesses
system.l2.overall_accesses::.cpu.data           57881                       # number of overall (read+write) accesses
system.l2.overall_accesses::total               60460                       # number of overall (read+write) accesses
system.l2.demand_miss_rate::.cpu.inst        0.816208                       # miss rate for demand accesses
system.l2.demand_miss_rate::.cpu.data        0.776231                       # miss rate for demand accesses
system.l2.demand_miss_rate::total            0.777936                       # miss rate for demand accesses
system.l2.overall_miss_rate::.cpu.inst       0.816208                       # miss rate for overall accesses
system.l2.overall_miss_rate::.cpu.data       0.776231                       # miss rate for overall accesses
system.l2.overall_miss_rate::total           0.777936                       # miss rate for overall accesses
system.l2.demand_avg_miss_latency::.cpu.inst 71090.498812                       # average overall miss latency
system.l2.demand_avg_miss_latency::.cpu.data 71731.431815                       # average overall miss latency
system.l2.demand_avg_miss_latency::total 71702.746949                       # average overall miss latency
system.l2.overall_avg_miss_latency::.cpu.inst 71090.498812                       # average overall miss latency
system.l2.overall_avg_miss_latency::.cpu.data 71731.431815                       # average overall miss latency
system.l2.overall_avg_miss_latency::total 71702.746949                       # average overall miss latency
[...]
system.mem_ctrls.dram.bw_total::.cpu.data    455529509                       # Total bandwidth to/from this memory (bytes/s)
system.mem_ctrls.dram.bw_total::total       763345749                       # Total bandwidth to/from this memory (bytes/s)
system.mem_ctrls.dram.readBursts                47029                       # Number of DRAM read bursts
system.mem_ctrls.dram.writeBursts               28231                       # Number of DRAM write bursts
system.mem_ctrls.dram.perBankRdBursts::0         3276                       # Per bank write bursts
system.mem_ctrls.dram.perBankRdBursts::1         3158                       # Per bank write bursts
system.mem_ctrls.dram.perBankRdBursts::2         2988                       # Per bank write bursts
system.mem_ctrls.dram.perBankRdBursts::3         3004                       # Per bank write bursts
system.mem_ctrls.dram.perBankRdBursts::4         2974                       # Per bank write bursts
system.mem_ctrls.dram.perBankRdBursts::5         3062                       # Per bank write bursts
system.mem_ctrls.dram.perBankRdBursts::6         3064                       # Per bank write bursts
system.mem_ctrls.dram.perBankRdBursts::7         2846                       # Per bank write bursts
system.mem_ctrls.dram.perBankRdBursts::8         2921                       # Per bank write bursts
system.mem_ctrls.dram.perBankRdBursts::9         2796                       # Per bank write bursts
system.mem_ctrls.dram.perBankRdBursts::10         2898                       # Per bank write bursts
system.mem_ctrls.dram.perBankRdBursts::11         2878                       # Per bank write bursts
system.mem_ctrls.dram.perBankRdBursts::12         2909                       # Per bank write bursts
system.mem_ctrls.dram.perBankRdBursts::13         2713                       # Per bank write bursts
system.mem_ctrls.dram.perBankRdBursts::14         2862                       # Per bank write bursts
system.mem_ctrls.dram.perBankRdBursts::15         2680                       # Per bank write bursts
system.mem_ctrls.dram.perBankWrBursts::0         1855                       # Per bank write bursts
system.mem_ctrls.dram.perBankWrBursts::1         2033                       # Per bank write bursts
system.mem_ctrls.dram.perBankWrBursts::2         1876                       # Per bank write bursts
system.mem_ctrls.dram.perBankWrBursts::3         1857                       # Per bank write bursts
system.mem_ctrls.dram.perBankWrBursts::4         1822                       # Per bank write bursts
system.mem_ctrls.dram.perBankWrBursts::5         1638                       # Per bank write bursts
system.mem_ctrls.dram.perBankWrBursts::6         1732                       # Per bank write bursts
system.mem_ctrls.dram.perBankWrBursts::7         1721                       # Per bank write bursts
system.mem_ctrls.dram.perBankWrBursts::8         1789                       # Per bank write bursts
system.mem_ctrls.dram.perBankWrBursts::9         1761                       # Per bank write bursts
system.mem_ctrls.dram.perBankWrBursts::10         1807                       # Per bank write bursts
system.mem_ctrls.dram.perBankWrBursts::11         1694                       # Per bank write bursts
system.mem_ctrls.dram.perBankWrBursts::12         1807                       # Per bank write bursts
system.mem_ctrls.dram.perBankWrBursts::13         1661                       # Per bank write bursts
system.mem_ctrls.dram.perBankWrBursts::14         1676                       # Per bank write bursts
system.mem_ctrls.dram.perBankWrBursts::15         1502                       # Per bank write bursts
system.mem_ctrls.dram.totQLat               457475750                       # Total ticks spent queuing
system.mem_ctrls.dram.totBusLat             235145000                       # Total ticks spent in databus transfers
system.mem_ctrls.dram.totMemAccLat         1339269500                       # Total ticks spent from burst creation until serviced by the DRAM
system.mem_ctrls.dram.avgQLat                 9727.52                       # Average queueing delay per DRAM burst
system.mem_ctrls.dram.avgBusLat               5000.00                       # Average bus latency per DRAM burst
system.mem_ctrls.dram.avgMemAccLat           28477.52                       # Average memory access latency per DRAM burst
system.mem_ctrls.dram.readRowHits               40111                       # Number of row buffer hits during reads
system.mem_ctrls.dram.writeRowHits              25669                       # Number of row buffer hits during writes
system.mem_ctrls.dram.readRowHitRate            85.29                       # Row buffer hit rate for reads
system.mem_ctrls.dram.writeRowHitRate           90.92                       # Row buffer hit rate for writes
system.mem_ctrls.dram.bytesPerActivate::samples         9480                       # Bytes accessed per row activation
system.mem_ctrls.dram.bytesPerActivate::mean   508.084388                       # Bytes accessed per row activation
system.mem_ctrls.dram.bytesPerActivate::gmean   295.898244                       # Bytes accessed per row activation
system.mem_ctrls.dram.bytesPerActivate::stdev   418.684135                       # Bytes accessed per row activation
system.mem_ctrls.dram.bytesPerActivate::0-127         2627     27.71%     27.71% # Bytes accessed per row activation
system.mem_ctrls.dram.bytesPerActivate::128-255         1459     15.39%     43.10% # Bytes accessed per row activation
system.mem_ctrls.dram.bytesPerActivate::256-383          663      6.99%     50.09% # Bytes accessed per row activation
system.mem_ctrls.dram.bytesPerActivate::384-511          434      4.58%     54.67% # Bytes accessed per row activation
system.mem_ctrls.dram.bytesPerActivate::512-639          278      2.93%     57.61% # Bytes accessed per row activation
system.mem_ctrls.dram.bytesPerActivate::640-767          337      3.55%     61.16% # Bytes accessed per row activation
system.mem_ctrls.dram.bytesPerActivate::768-895          253      2.67%     63.83% # Bytes accessed per row activation
system.mem_ctrls.dram.bytesPerActivate::896-1023          296      3.12%     66.95% # Bytes accessed per row activation
system.mem_ctrls.dram.bytesPerActivate::1024-1151         3133     33.05%    100.00% # Bytes accessed per row activation
system.mem_ctrls.dram.bytesPerActivate::total         9480                       # Bytes accessed per row activation
system.mem_ctrls.dram.bytesRead               3009856                       # Total number of bytes read from DRAM
system.mem_ctrls.dram.bytesWritten            1806784                       # Total number of bytes written to DRAM
system.mem_ctrls.dram.avgRdBW              476.821146                       # Average DRAM read bandwidth in MiBytes/s
system.mem_ctrls.dram.avgWrBW              286.230576                       # Average DRAM write bandwidth in MiBytes/s
system.mem_ctrls.dram.peakBW                 12800.00                       # Theoretical peak bandwidth in MiByte/s
system.mem_ctrls.dram.busUtil                    5.96                       # Data bus utilization in percentage
system.mem_ctrls.dram.busUtilRead                3.73                       # Data bus utilization in percentage for reads
system.mem_ctrls.dram.busUtilWrite               2.24                       # Data bus utilization in percentage for writes
system.mem_ctrls.dram.pageHitRate               87.40                       # Row buffer hit rate, read and write combined
system.mem_ctrls.dram.power_state.pwrStateResidencyTicks::UNDEFINED   6312337500                       # Cumulative time (in ticks) in various power states
system.mem_ctrls.dram.rank0.actEnergy        35264460                       # Energy for activate commands per rank (pJ)
system.mem_ctrls.dram.rank0.preEnergy        18743505                       # Energy for precharge commands per rank (pJ)
system.mem_ctrls.dram.rank0.readEnergy      174016080                       # Energy for read commands per rank (pJ)
system.mem_ctrls.dram.rank0.writeEnergy      75867480                       # Energy for write commands per rank (pJ)
system.mem_ctrls.dram.rank0.refreshEnergy 497858400.000000                       # Energy for refresh commands per rank (pJ)
system.mem_ctrls.dram.rank0.actBackEnergy   1569186060                       # Energy for active background per rank (pJ)
system.mem_ctrls.dram.rank0.preBackEnergy   1102517760                       # Energy for precharge background per rank (pJ)
system.mem_ctrls.dram.rank0.actPowerDownEnergy            0                       # Energy for active power-down per rank (pJ)
system.mem_ctrls.dram.rank0.prePowerDownEnergy            0                       # Energy for precharge power-down per rank (pJ)
system.mem_ctrls.dram.rank0.selfRefreshEnergy            0                       # Energy for self refresh per rank (pJ)
system.mem_ctrls.dram.rank0.totalEnergy    3473453745                       # Total energy per rank (pJ)
system.mem_ctrls.dram.rank0.averagePower   550.264263                       # Core power per rank (mW)
system.mem_ctrls.dram.rank0.totalIdleTime            0                       # Total Idle time Per DRAM Rank
system.mem_ctrls.dram.rank0.pwrStateTime::IDLE   2837233250                       # Time in different power states
system.mem_ctrls.dram.rank0.pwrStateTime::REF    210600000                       # Time in different power states
system.mem_ctrls.dram.rank0.pwrStateTime::SREF            0                       # Time in different power states
system.mem_ctrls.dram.rank0.pwrStateTime::PRE_PDN            0                       # Time in different power states
system.mem_ctrls.dram.rank0.pwrStateTime::ACT   3264504250                       # Time in different power states
system.mem_ctrls.dram.rank0.pwrStateTime::ACT_PDN            0                       # Time in different power states
system.mem_ctrls.dram.rank1.actEnergy        32422740                       # Energy for activate commands per rank (pJ)
system.mem_ctrls.dram.rank1.preEnergy        17233095                       # Energy for precharge commands per rank (pJ)
system.mem_ctrls.dram.rank1.readEnergy      161770980                       # Energy for read commands per rank (pJ)
system.mem_ctrls.dram.rank1.writeEnergy      71498340                       # Energy for write commands per rank (pJ)
system.mem_ctrls.dram.rank1.refreshEnergy 497858400.000000                       # Energy for refresh commands per rank (pJ)
system.mem_ctrls.dram.rank1.actBackEnergy   1546526850                       # Energy for active background per rank (pJ)
system.mem_ctrls.dram.rank1.preBackEnergy   1121599200                       # Energy for precharge background per rank (pJ)
system.mem_ctrls.dram.rank1.actPowerDownEnergy            0                       # Energy for active power-down per rank (pJ)
system.mem_ctrls.dram.rank1.prePowerDownEnergy            0                       # Energy for precharge power-down per rank (pJ)
system.mem_ctrls.dram.rank1.selfRefreshEnergy            0                       # Energy for self refresh per rank (pJ)
system.mem_ctrls.dram.rank1.totalEnergy    3448909605                       # Total energy per rank (pJ)
system.mem_ctrls.dram.rank1.averagePower   546.375983                       # Core power per rank (mW)
system.mem_ctrls.dram.rank1.totalIdleTime            0                       # Total Idle time Per DRAM Rank
system.mem_ctrls.dram.rank1.pwrStateTime::IDLE   2888172250                       # Time in different power states
system.mem_ctrls.dram.rank1.pwrStateTime::REF    210600000                       # Time in different power states
system.mem_ctrls.dram.rank1.pwrStateTime::SREF            0                       # Time in different power states
system.mem_ctrls.dram.rank1.pwrStateTime::PRE_PDN            0                       # Time in different power states
system.mem_ctrls.dram.rank1.pwrStateTime::ACT   3213565250                       # Time in different power states
system.mem_ctrls.dram.rank1.pwrStateTime::ACT_PDN            0                       # Time in different power states
system.mem_ctrls.power_state.pwrStateResidencyTicks::UNDEFINED   6312337500                       # Cumulative time (in ticks) in various power states
system.membus.trans_dist::ReadResp              11237                       # Transaction distribution
system.membus.trans_dist::WritebackDirty        28255                       # Transaction distribution
system.membus.trans_dist::CleanEvict            10145                       # Transaction distribution
system.membus.trans_dist::ReadExReq             35797                       # Transaction distribution
system.membus.trans_dist::ReadExResp            35797                       # Transaction distribution
system.membus.trans_dist::ReadSharedReq         11237                       # Transaction distribution
system.membus.pkt_count_system.l2.mem_side_port::system.mem_ctrls.port       132468                       # Packet count per connected requestor and responder (bytes)
system.membus.pkt_count_system.l2.mem_side_port::total       132468                       # Packet count per connected requestor and responder (bytes)
system.membus.pkt_count::total                 132468                       # Packet count per connected requestor and responder (bytes)
system.membus.pkt_size_system.l2.mem_side_port::system.mem_ctrls.port      4818496                       # Cumulative packet size per connected requestor and responder (bytes)
system.membus.pkt_size_system.l2.mem_side_port::total      4818496                       # Cumulative packet size per connected requestor and responder (bytes)
system.membus.pkt_size::total                 4818496                       # Cumulative packet size per connected requestor and responder (bytes)
system.membus.snoops                                0                       # Total snoops (count)
system.membus.snoopTraffic                          0                       # Total snoop traffic (bytes)
system.membus.snoop_fanout::samples             47034                       # Request fanout histogram
system.membus.snoop_fanout::mean                    0                       # Request fanout histogram
system.membus.snoop_fanout::stdev                   0                       # Request fanout histogram
system.membus.snoop_fanout::underflows              0      0.00%      0.00% # Request fanout histogram
system.membus.snoop_fanout::0                   47034    100.00%    100.00% # Request fanout histogram
system.membus.snoop_fanout::1                       0      0.00%    100.00% # Request fanout histogram
system.membus.snoop_fanout::overflows               0      0.00%    100.00% # Request fanout histogram
system.membus.snoop_fanout::min_value               0                       # Request fanout histogram
system.membus.snoop_fanout::max_value               0                       # Request fanout histogram
system.membus.snoop_fanout::total               47034                       # Request fanout histogram
system.membus.power_state.pwrStateResidencyTicks::UNDEFINED   6312337500                       # Cumulative time (in ticks) in various power states
system.membus.reqLayer2.occupancy            49613500                       # Layer occupancy (ticks)
system.membus.reqLayer2.utilization               0.8                       # Layer utilization (%)
system.membus.respLayer1.occupancy           58792500                       # Layer occupancy (ticks)
system.membus.respLayer1.utilization              0.9                       # Layer utilization (%)
system.tol2bus.trans_dist::ReadResp             23625                       # Transaction distribution
system.tol2bus.trans_dist::WritebackDirty        69803                       # Transaction distribution
system.tol2bus.trans_dist::WritebackClean         2072                       # Transaction distribution
system.tol2bus.trans_dist::CleanEvict           26847                       # Transaction distribution
system.tol2bus.trans_dist::ReadExReq            36838                       # Transaction distribution
system.tol2bus.trans_dist::ReadExResp           36838                       # Transaction distribution
system.tol2bus.trans_dist::ReadCleanReq          2582                       # Transaction distribution
system.tol2bus.trans_dist::ReadSharedReq        21043                       # Transaction distribution
system.tol2bus.pkt_count_system.cpu.icache.mem_side_port::system.l2.cpu_side_port         7233                       # Packet count per connected requestor and responder (bytes)
system.tol2bus.pkt_count_system.cpu.dcache.mem_side_port::system.l2.cpu_side_port       173131                       # Packet count per connected requestor and responder (bytes)
system.tol2bus.pkt_count::total                180364                       # Packet count per connected requestor and responder (bytes)
system.tol2bus.pkt_size_system.cpu.icache.mem_side_port::system.l2.cpu_side_port       297664                       # Cumulative packet size per connected requestor and responder (bytes)
system.tol2bus.pkt_size_system.cpu.dcache.mem_side_port::system.l2.cpu_side_port      6363456                       # Cumulative packet size per connected requestor and responder (bytes)
system.tol2bus.pkt_size::total                6661120                       # Cumulative packet size per connected requestor and responder (bytes)
system.tol2bus.snoops                           39284                       # Total snoops (count)
system.tol2bus.snoopTraffic                   1808512                       # Total snoop traffic (bytes)
system.tol2bus.snoop_fanout::samples            99744                       # Request fanout histogram
system.tol2bus.snoop_fanout::mean            0.009073                       # Request fanout histogram
system.tol2bus.snoop_fanout::stdev           0.094821                       # Request fanout histogram
system.tol2bus.snoop_fanout::underflows             0      0.00%      0.00% # Request fanout histogram
system.tol2bus.snoop_fanout::0                  98839     99.09%     99.09% # Request fanout histogram
system.tol2bus.snoop_fanout::1                    905      0.91%    100.00% # Request fanout histogram
system.tol2bus.snoop_fanout::2                      0      0.00%    100.00% # Request fanout histogram
system.tol2bus.snoop_fanout::3                      0      0.00%    100.00% # Request fanout histogram
system.tol2bus.snoop_fanout::4                      0      0.00%    100.00% # Request fanout histogram
system.tol2bus.snoop_fanout::overflows              0      0.00%    100.00% # Request fanout histogram
system.tol2bus.snoop_fanout::min_value              0                       # Request fanout histogram
system.tol2bus.snoop_fanout::max_value              1                       # Request fanout histogram
system.tol2bus.snoop_fanout::total              99744                       # Request fanout histogram
system.tol2bus.power_state.pwrStateResidencyTicks::UNDEFINED   6312337500                       # Cumulative time (in ticks) in various power states
system.tol2bus.reqLayer0.occupancy          103572000                       # Layer occupancy (ticks)
system.tol2bus.reqLayer0.utilization              1.6                       # Layer utilization (%)
system.tol2bus.respLayer0.occupancy           3873998                       # Layer occupancy (ticks)
system.tol2bus.respLayer0.utilization             0.1                       # Layer utilization (%)
system.tol2bus.respLayer1.occupancy          86821999                       # Layer occupancy (ticks)
system.tol2bus.respLayer1.utilization             1.4                       # Layer utilization (%)
system.voltage_domain.voltage                       1                       # Voltage in Volts

---------- End Simulation Statistics   ----------
