
---------- Begin Simulation Statistics ----------
final_tick                                 2924080500                       # Number of ticks from beginning of simulation (restored from checkpoints and never reset)
host_inst_rate                                 109618                       # Simulator instruction rate (inst/s)
host_mem_usage                                 708004                       # Number of bytes of host memory used
host_op_rate                                   196345                       # Simulator op (including micro ops) rate (op/s)
host_seconds                                    91.23                       # Real time elapsed on the host
host_tick_rate                               32053213                       # Simulator tick rate (ticks/s)
sim_freq                                 1000000000000                       # Frequency of simulated ticks
sim_insts                                    10000000                       # Number of instructions simulated
sim_ops                                      17911679                       # Number of ops (including micro ops) simulated
sim_seconds                                  0.002924                       # Number of seconds simulated
sim_ticks                                  2924080500                       # Number of ticks simulated
system.cpu.cc_regfile_reads                   4870354                       # number of cc regfile reads
system.cpu.cc_regfile_writes                  4245738                       # number of cc regfile writes
system.cpu.committedInsts                    10000000                       # Number of Instructions Simulated
system.cpu.committedOps                      17911679                       # Number of Ops (including micro ops) Simulated
system.cpu.cpi                               0.584816                       # CPI: Cycles Per Instruction
system.cpu.cpi_total                         0.584816                       # CPI: Total CPI of All Threads
system.cpu.fp_regfile_reads                  12298629                       # number of floating regfile reads
system.cpu.fp_regfile_writes                  6926170                       # number of floating regfile writes
system.cpu.idleCycles                          138602                       # Total number of cycles that the CPU has spent unscheduled due to idling
system.cpu.iew.branchMispredicts                17766                       # Number of branch mispredicts detected at execute
system.cpu.iew.exec_branches                  1116978                       # Number of branches executed
system.cpu.iew.exec_nop                             0                       # number of nop insts executed
system.cpu.iew.exec_rate                     3.130885                       # Inst execution rate
system.cpu.iew.exec_refs                      2789050                       # number of memory reference insts executed
system.cpu.iew.exec_stores                     485793                       # Number of stores executed
system.cpu.iew.exec_swp                             0                       # number of swp insts executed
system.cpu.iew.iewBlockCycles                  180060                       # Number of cycles IEW is blocking
system.cpu.iew.iewDispLoadInsts               2324005                       # Number of dispatched load instructions
system.cpu.iew.iewDispNonSpecInsts                 25                       # Number of dispatched non-speculative instructions
system.cpu.iew.iewDispSquashedInsts              1157                       # Number of squashed instructions skipped by dispatch
system.cpu.iew.iewDispStoreInsts               498103                       # Number of dispatched store instructions
system.cpu.iew.iewDispatchedInsts            18593869                       # Number of instructions dispatched to IQ
system.cpu.iew.iewExecLoadInsts               2303257                       # Number of load instructions executed
system.cpu.iew.iewExecSquashedInsts             27042                       # Number of squashed instructions skipped in execute
system.cpu.iew.iewExecutedInsts              18309921                       # Number of executed instructions
system.cpu.iew.iewIQFullEvents                   1264                       # Number of times the IQ has become full, causing a stall
system.cpu.iew.iewIdleCycles                        0                       # Number of cycles IEW is idle
system.cpu.iew.iewLSQFullEvents                 44333                       # Number of times the LSQ has become full, causing a stall
system.cpu.iew.iewSquashCycles                  14794                       # Number of cycles IEW is squashing
system.cpu.iew.iewUnblockCycles                 46213                       # Number of cycles IEW is unblocking
system.cpu.iew.memOrderViolationEvents            156                       # Number of memory order violations
system.cpu.iew.predictedNotTakenIncorrect        14943                       # Number of branches that were predicted not taken incorrectly
system.cpu.iew.predictedTakenIncorrect           2823                       # Number of branches that were predicted taken incorrectly
system.cpu.iew.wb_consumers                  25046626                       # num instructions consuming a value
system.cpu.iew.wb_count                      18293475                       # cumulative count of insts written-back
system.cpu.iew.wb_fanout                     0.573346                       # average fanout of values written-back
system.cpu.iew.wb_producers                  14360385                       # num instructions producing a value
system.cpu.iew.wb_rate                       3.128073                       # insts written-back per cycle
system.cpu.iew.wb_sent                       18299924                       # cumulative count of insts sent to commit
system.cpu.int_regfile_reads                 18698757                       # number of integer regfile reads
system.cpu.int_regfile_writes                 9673118                       # number of integer regfile writes
system.cpu.ipc                               1.709939                       # IPC: Instructions Per Cycle
system.cpu.ipc_total                         1.709939                       # IPC: Total IPC of All Threads
system.cpu.iq.FU_type_0::No_OpClass            319439      1.74%      1.74% # Type of FU issued
system.cpu.iq.FU_type_0::IntAlu               9886163     53.91%     55.66% # Type of FU issued
system.cpu.iq.FU_type_0::IntMult                 1885      0.01%     55.67% # Type of FU issued
system.cpu.iq.FU_type_0::IntDiv                 99370      0.54%     56.21% # Type of FU issued
system.cpu.iq.FU_type_0::FloatAdd              425676      2.32%     58.53% # Type of FU issued
system.cpu.iq.FU_type_0::FloatCmp                   0      0.00%     58.53% # Type of FU issued
system.cpu.iq.FU_type_0::FloatCvt                  32      0.00%     58.53% # Type of FU issued
system.cpu.iq.FU_type_0::FloatMult                  0      0.00%     58.53% # Type of FU issued
system.cpu.iq.FU_type_0::FloatMultAcc               0      0.00%     58.53% # Type of FU issued
system.cpu.iq.FU_type_0::FloatDiv                   0      0.00%     58.53% # Type of FU issued
system.cpu.iq.FU_type_0::FloatMisc                  0      0.00%     58.53% # Type of FU issued
system.cpu.iq.FU_type_0::FloatSqrt                  0      0.00%     58.53% # Type of FU issued
system.cpu.iq.FU_type_0::SimdAdd                 3066      0.02%     58.55% # Type of FU issued
system.cpu.iq.FU_type_0::SimdAddAcc                 0      0.00%     58.55% # Type of FU issued
system.cpu.iq.FU_type_0::SimdAlu               851487      4.64%     63.19% # Type of FU issued
system.cpu.iq.FU_type_0::SimdCmp                   12      0.00%     63.19% # Type of FU issued
system.cpu.iq.FU_type_0::SimdCvt                 7408      0.04%     63.23% # Type of FU issued
system.cpu.iq.FU_type_0::SimdMisc              848284      4.63%     67.86% # Type of FU issued
system.cpu.iq.FU_type_0::SimdMult                  64      0.00%     67.86% # Type of FU issued
system.cpu.iq.FU_type_0::SimdMultAcc                0      0.00%     67.86% # Type of FU issued
system.cpu.iq.FU_type_0::SimdShift               2988      0.02%     67.87% # Type of FU issued
system.cpu.iq.FU_type_0::SimdShiftAcc               0      0.00%     67.87% # Type of FU issued
system.cpu.iq.FU_type_0::SimdDiv                    0      0.00%     67.87% # Type of FU issued
system.cpu.iq.FU_type_0::SimdSqrt                   0      0.00%     67.87% # Type of FU issued
system.cpu.iq.FU_type_0::SimdFloatAdd         1405559      7.67%     75.54% # Type of FU issued
system.cpu.iq.FU_type_0::SimdFloatAlu               0      0.00%     75.54% # Type of FU issued
system.cpu.iq.FU_type_0::SimdFloatCmp               0      0.00%     75.54% # Type of FU issued
system.cpu.iq.FU_type_0::SimdFloatCvt          702989      3.83%     79.37% # Type of FU issued
system.cpu.iq.FU_type_0::SimdFloatDiv               2      0.00%     79.37% # Type of FU issued
system.cpu.iq.FU_type_0::SimdFloatMisc              0      0.00%     79.37% # Type of FU issued
system.cpu.iq.FU_type_0::SimdFloatMult         984238      5.37%     84.74% # Type of FU issued
system.cpu.iq.FU_type_0::SimdFloatMultAcc            0      0.00%     84.74% # Type of FU issued
system.cpu.iq.FU_type_0::SimdFloatSqrt              0      0.00%     84.74% # Type of FU issued
system.cpu.iq.FU_type_0::SimdReduceAdd              0      0.00%     84.74% # Type of FU issued
system.cpu.iq.FU_type_0::SimdReduceAlu              0      0.00%     84.74% # Type of FU issued
system.cpu.iq.FU_type_0::SimdReduceCmp              0      0.00%     84.74% # Type of FU issued
system.cpu.iq.FU_type_0::SimdFloatReduceAdd            0      0.00%     84.74% # Type of FU issued
system.cpu.iq.FU_type_0::SimdFloatReduceCmp            0      0.00%     84.74% # Type of FU issued
system.cpu.iq.FU_type_0::SimdAes                    0      0.00%     84.74% # Type of FU issued
system.cpu.iq.FU_type_0::SimdAesMix                 0      0.00%     84.74% # Type of FU issued
system.cpu.iq.FU_type_0::SimdSha1Hash               0      0.00%     84.74% # Type of FU issued
system.cpu.iq.FU_type_0::SimdSha1Hash2              0      0.00%     84.74% # Type of FU issued
system.cpu.iq.FU_type_0::SimdSha256Hash             0      0.00%     84.74% # Type of FU issued
system.cpu.iq.FU_type_0::SimdSha256Hash2            0      0.00%     84.74% # Type of FU issued
system.cpu.iq.FU_type_0::SimdShaSigma2              0      0.00%     84.74% # Type of FU issued
system.cpu.iq.FU_type_0::SimdShaSigma3              0      0.00%     84.74% # Type of FU issued
system.cpu.iq.FU_type_0::SimdPredAlu                0      0.00%     84.74% # Type of FU issued
system.cpu.iq.FU_type_0::MemRead               750759      4.09%     88.83% # Type of FU issued
system.cpu.iq.FU_type_0::MemWrite              479557      2.62%     91.45% # Type of FU issued
system.cpu.iq.FU_type_0::FloatMemRead         1559806      8.51%     99.96% # Type of FU issued
system.cpu.iq.FU_type_0::FloatMemWrite           8181      0.04%    100.00% # Type of FU issued
system.cpu.iq.FU_type_0::IprAccess                  0      0.00%    100.00% # Type of FU issued
system.cpu.iq.FU_type_0::InstPrefetch               0      0.00%    100.00% # Type of FU issued
system.cpu.iq.FU_type_0::total               18336965                       # Type of FU issued
system.cpu.iq.fp_alu_accesses                 7363962                       # Number of floating point alu accesses
system.cpu.iq.fp_inst_queue_reads            14728436                       # Number of floating instruction queue reads
system.cpu.iq.fp_inst_queue_wakeup_accesses      7358198                       # Number of floating instruction queue wakeup accesses
system.cpu.iq.fp_inst_queue_writes            7426615                       # Number of floating instruction queue writes
system.cpu.iq.fu_busy_cnt                      162167                       # FU busy when requested
system.cpu.iq.fu_busy_rate                   0.008844                       # FU busy rate (busy events/executed inst)
system.cpu.iq.fu_full::No_OpClass                   0      0.00%      0.00% # attempts to use FU when none available
system.cpu.iq.fu_full::IntAlu                  159708     98.48%     98.48% # attempts to use FU when none available
system.cpu.iq.fu_full::IntMult                      0      0.00%     98.48% # attempts to use FU when none available
system.cpu.iq.fu_full::IntDiv                       0      0.00%     98.48% # attempts to use FU when none available
system.cpu.iq.fu_full::FloatAdd                     0      0.00%     98.48% # attempts to use FU when none available
system.cpu.iq.fu_full::FloatCmp                     0      0.00%     98.48% # attempts to use FU when none available
system.cpu.iq.fu_full::FloatCvt                     0      0.00%     98.48% # attempts to use FU when none available
system.cpu.iq.fu_full::FloatMult                    0      0.00%     98.48% # attempts to use FU when none available
system.cpu.iq.fu_full::FloatMultAcc                 0      0.00%     98.48% # attempts to use FU when none available
system.cpu.iq.fu_full::FloatDiv                     0      0.00%     98.48% # attempts to use FU when none available
system.cpu.iq.fu_full::FloatMisc                    0      0.00%     98.48% # attempts to use FU when none available
system.cpu.iq.fu_full::FloatSqrt                    0      0.00%     98.48% # attempts to use FU when none available
system.cpu.iq.fu_full::SimdAdd                      0      0.00%     98.48% # attempts to use FU when none available
system.cpu.iq.fu_full::SimdAddAcc                   0      0.00%     98.48% # attempts to use FU when none available
system.cpu.iq.fu_full::SimdAlu                    102      0.06%     98.55% # attempts to use FU when none available
system.cpu.iq.fu_full::SimdCmp                      0      0.00%     98.55% # attempts to use FU when none available
system.cpu.iq.fu_full::SimdCvt                     49      0.03%     98.58% # attempts to use FU when none available
system.cpu.iq.fu_full::SimdMisc                    12      0.01%     98.58% # attempts to use FU when none available
system.cpu.iq.fu_full::SimdMult                     0      0.00%     98.58% # attempts to use FU when none available
system.cpu.iq.fu_full::SimdMultAcc                  0      0.00%     98.58% # attempts to use FU when none available
system.cpu.iq.fu_full::SimdShift                   20      0.01%     98.60% # attempts to use FU when none available
system.cpu.iq.fu_full::SimdShiftAcc                 0      0.00%     98.60% # attempts to use FU when none available
system.cpu.iq.fu_full::SimdDiv                      0      0.00%     98.60% # attempts to use FU when none available
system.cpu.iq.fu_full::SimdSqrt                     0      0.00%     98.60% # attempts to use FU when none available
system.cpu.iq.fu_full::SimdFloatAdd                 0      0.00%     98.60% # attempts to use FU when none available
system.cpu.iq.fu_full::SimdFloatAlu                 0      0.00%     98.60% # attempts to use FU when none available
system.cpu.iq.fu_full::SimdFloatCmp                 0      0.00%     98.60% # attempts to use FU when none available
system.cpu.iq.fu_full::SimdFloatCvt                 0      0.00%     98.60% # attempts to use FU when none available
system.cpu.iq.fu_full::SimdFloatDiv                 0      0.00%     98.60% # attempts to use FU when none available
system.cpu.iq.fu_full::SimdFloatMisc                0      0.00%     98.60% # attempts to use FU when none available
system.cpu.iq.fu_full::SimdFloatMult                0      0.00%     98.60% # attempts to use FU when none available
system.cpu.iq.fu_full::SimdFloatMultAcc             0      0.00%     98.60% # attempts to use FU when none available
system.cpu.iq.fu_full::SimdFloatSqrt                0      0.00%     98.60% # attempts to use FU when none available
system.cpu.iq.fu_full::SimdReduceAdd                0      0.00%     98.60% # attempts to use FU when none available
system.cpu.iq.fu_full::SimdReduceAlu                0      0.00%     98.60% # attempts to use FU when none available
system.cpu.iq.fu_full::SimdReduceCmp                0      0.00%     98.60% # attempts to use FU when none available
system.cpu.iq.fu_full::SimdFloatReduceAdd            0      0.00%     98.60% # attempts to use FU when none available
system.cpu.iq.fu_full::SimdFloatReduceCmp            0      0.00%     98.60% # attempts to use FU when none available
system.cpu.iq.fu_full::SimdAes                      0      0.00%     98.60% # attempts to use FU when none available
system.cpu.iq.fu_full::SimdAesMix                   0      0.00%     98.60% # attempts to use FU when none available
system.cpu.iq.fu_full::SimdSha1Hash                 0      0.00%     98.60% # attempts to use FU when none available
system.cpu.iq.fu_full::SimdSha1Hash2                0      0.00%     98.60% # attempts to use FU when none available
system.cpu.iq.fu_full::SimdSha256Hash               0      0.00%     98.60% # attempts to use FU when none available
system.cpu.iq.fu_full::SimdSha256Hash2              0      0.00%     98.60% # attempts to use FU when none available
system.cpu.iq.fu_full::SimdShaSigma2                0      0.00%     98.60% # attempts to use FU when none available
system.cpu.iq.fu_full::SimdShaSigma3                0      0.00%     98.60% # attempts to use FU when none available
system.cpu.iq.fu_full::SimdPredAlu                  0      0.00%     98.60% # attempts to use FU when none available
system.cpu.iq.fu_full::MemRead                   1083      0.67%     99.26% # attempts to use FU when none available
system.cpu.iq.fu_full::MemWrite                   752      0.46%     99.73% # attempts to use FU when none available
system.cpu.iq.fu_full::FloatMemRead                90      0.06%     99.78% # attempts to use FU when none available
system.cpu.iq.fu_full::FloatMemWrite              351      0.22%    100.00% # attempts to use FU when none available
system.cpu.iq.fu_full::IprAccess                    0      0.00%    100.00% # attempts to use FU when none available
system.cpu.iq.fu_full::InstPrefetch                 0      0.00%    100.00% # attempts to use FU when none available
system.cpu.iq.int_alu_accesses               10815731                       # Number of integer alu accesses
system.cpu.iq.int_inst_queue_reads           27823095                       # Number of integer instruction queue reads
system.cpu.iq.int_inst_queue_wakeup_accesses     10935277                       # Number of integer instruction queue wakeup accesses
system.cpu.iq.int_inst_queue_writes          11849456                       # Number of integer instruction queue writes
system.cpu.iq.iqInstsAdded                   18593842                       # Number of instructions added to the IQ (excludes non-spec)
system.cpu.iq.iqInstsIssued                  18336965                       # Number of instructions issued
system.cpu.iq.iqNonSpecInstsAdded                  27                       # Number of non-speculative instructions added to the IQ
system.cpu.iq.iqSquashedInstsExamined          682072                       # Number of squashed instructions iterated over during squash; mainly for profiling
system.cpu.iq.iqSquashedInstsIssued              5876                       # Number of squashed instructions issued
system.cpu.iq.iqSquashedNonSpecRemoved              9                       # Number of squashed non-spec instructions that were removed
system.cpu.iq.iqSquashedOperandsExamined      1087006                       # Number of squashed operands that are examined and possibly removed from graph
system.cpu.iq.issued_per_cycle::samples       5709560                       # Number of insts issued each cycle
system.cpu.iq.issued_per_cycle::mean         3.211625                       # Number of insts issued each cycle
system.cpu.iq.issued_per_cycle::stdev        2.113273                       # Number of insts issued each cycle
system.cpu.iq.issued_per_cycle::underflows            0      0.00%      0.00% # Number of insts issued each cycle
system.cpu.iq.issued_per_cycle::0              588571     10.31%     10.31% # Number of insts issued each cycle
system.cpu.iq.issued_per_cycle::1              733740     12.85%     23.16% # Number of insts issued each cycle
system.cpu.iq.issued_per_cycle::2             1088375     19.06%     42.22% # Number of insts issued each cycle
system.cpu.iq.issued_per_cycle::3              902218     15.80%     58.02% # Number of insts issued each cycle
system.cpu.iq.issued_per_cycle::4              880832     15.43%     73.45% # Number of insts issued each cycle
system.cpu.iq.issued_per_cycle::5              479334      8.40%     81.85% # Number of insts issued each cycle
system.cpu.iq.issued_per_cycle::6              576066     10.09%     91.94% # Number of insts issued each cycle
system.cpu.iq.issued_per_cycle::7              339965      5.95%     97.89% # Number of insts issued each cycle
system.cpu.iq.issued_per_cycle::8              120459      2.11%    100.00% # Number of insts issued each cycle
system.cpu.iq.issued_per_cycle::overflows            0      0.00%    100.00% # Number of insts issued each cycle
system.cpu.iq.issued_per_cycle::min_value            0                       # Number of insts issued each cycle
system.cpu.iq.issued_per_cycle::max_value            8                       # Number of insts issued each cycle
system.cpu.iq.issued_per_cycle::total         5709560                       # Number of insts issued each cycle
system.cpu.iq.rate                           3.135509                       # Inst issue rate
system.cpu.iq.vec_alu_accesses                      0                       # Number of vector alu accesses
system.cpu.iq.vec_inst_queue_reads                  0                       # Number of vector instruction queue reads
system.cpu.iq.vec_inst_queue_wakeup_accesses            0                       # Number of vector instruction queue wakeup accesses
system.cpu.iq.vec_inst_queue_writes                 0                       # Number of vector instruction queue writes
system.cpu.memDep0.conflictingLoads              4598                       # Number of conflicting loads.
system.cpu.memDep0.conflictingStores             1622                       # Number of conflicting stores.
system.cpu.memDep0.insertedLoads              2324005                       # Number of loads inserted to the mem dependence unit.
system.cpu.memDep0.insertedStores              498103                       # Number of stores inserted to the mem dependence unit.
system.cpu.misc_regfile_reads                 6132312                       # number of misc regfile reads
system.cpu.misc_regfile_writes                     18                       # number of misc regfile writes
system.cpu.numCycles                          5848162                       # number of cpu cycles simulated
system.cpu.numWorkItemsCompleted                    0                       # number of work items this cpu completed
system.cpu.numWorkItemsStarted                      0                       # number of work items this cpu started
system.cpu.timesIdled                            1556                       # Number of times that the entire CPU went into an idle state and unscheduled itself
system.cpu.workload.numSyscalls                    57                       # Number of system calls
system.membus.snoop_filter.hit_multi_requests            0                       # Number of requests hitting in the snoop filter with multiple (>1) holders of the requested data.
system.membus.snoop_filter.hit_multi_snoops            0                       # Number of snoops hitting in the snoop filter with multiple (>1) holders of the requested data.
system.membus.snoop_filter.hit_single_requests         6509                       # Number of requests hitting in the snoop filter with a single holder of the requested data.
system.membus.snoop_filter.hit_single_snoops            0                       # Number of snoops hitting in the snoop filter with a single holder of the requested data.
system.membus.snoop_filter.tot_requests         21720                       # Total number of requests made to the snoop filter.
system.membus.snoop_filter.tot_snoops               0                       # Total number of snoops made to the snoop filter.
system.tol2bus.snoop_filter.hit_multi_requests           10                       # Number of requests hitting in the snoop filter with multiple (>1) holders of the requested data.
system.tol2bus.snoop_filter.hit_multi_snoops            0                       # Number of snoops hitting in the snoop filter with multiple (>1) holders of the requested data.
system.tol2bus.snoop_filter.hit_single_requests        16377                       # Number of requests hitting in the snoop filter with a single holder of the requested data.
system.tol2bus.snoop_filter.hit_single_snoops          512                       # Number of snoops hitting in the snoop filter with a single holder of the requested data.
system.tol2bus.snoop_filter.tot_requests        33777                       # Total number of requests made to the snoop filter.
system.tol2bus.snoop_filter.tot_snoops            512                       # Total number of snoops made to the snoop filter.
system.clk_domain.clock                           250                       # Clock period in ticks
system.cpu.branchPred.lookups                 1186379                       # Number of BP lookups
system.cpu.branchPred.condPredicted            732021                       # Number of conditional branches predicted
system.cpu.branchPred.condIncorrect             15020                       # Number of conditional branches incorrect
system.cpu.branchPred.BTBLookups               340177                       # Number of BTB lookups
system.cpu.branchPred.BTBHits                  338575                       # Number of BTB hits
system.cpu.branchPred.BTBHitPct             99.529069                       # BTB Hit Percentage
system.cpu.branchPred.RASUsed                  145791                       # Number of times the RAS was used to get a target.
system.cpu.branchPred.RASIncorrect                  6                       # Number of incorrect RAS predictions.
system.cpu.branchPred.indirectLookups          148578                       # Number of indirect predictor lookups.
system.cpu.branchPred.indirectHits             142011                       # Number of indirect target hits.
system.cpu.branchPred.indirectMisses             6567                       # Number of indirect misses.
system.cpu.branchPred.indirectMispredicted         1030                       # Number of mispredicted indirect branches.
system.cpu.commit.commitSquashedInsts          672214                       # The number of squashed insts skipped by commit
system.cpu.commit.commitNonSpecStalls              18                       # The number of times commit has been forced to stall to communicate backwards
system.cpu.commit.branchMispredicts             14317                       # The number of times a branch was mispredicted
system.cpu.commit.numCommittedDist::samples      5612909                       # Number of insts commited each cycle
system.cpu.commit.numCommittedDist::mean     3.191158                       # Number of insts commited each cycle
system.cpu.commit.numCommittedDist::stdev     2.898097                       # Number of insts commited each cycle
system.cpu.commit.numCommittedDist::underflows            0      0.00%      0.00% # Number of insts commited each cycle
system.cpu.commit.numCommittedDist::0          836866     14.91%     14.91% # Number of insts commited each cycle
system.cpu.commit.numCommittedDist::1         1607155     28.63%     43.54% # Number of insts commited each cycle
system.cpu.commit.numCommittedDist::2          744390     13.26%     56.80% # Number of insts commited each cycle
system.cpu.commit.numCommittedDist::3          464225      8.27%     65.08% # Number of insts commited each cycle
system.cpu.commit.numCommittedDist::4          156060      2.78%     67.86% # Number of insts commited each cycle
system.cpu.commit.numCommittedDist::5          297038      5.29%     73.15% # Number of insts commited each cycle
system.cpu.commit.numCommittedDist::6          156590      2.79%     75.94% # Number of insts commited each cycle
system.cpu.commit.numCommittedDist::7          430581      7.67%     83.61% # Number of insts commited each cycle
system.cpu.commit.numCommittedDist::8          920004     16.39%    100.00% # Number of insts commited each cycle
system.cpu.commit.numCommittedDist::overflows            0      0.00%    100.00% # Number of insts commited each cycle
system.cpu.commit.numCommittedDist::min_value            0                       # Number of insts commited each cycle
system.cpu.commit.numCommittedDist::max_value            8                       # Number of insts commited each cycle
system.cpu.commit.numCommittedDist::total      5612909                       # Number of insts commited each cycle
system.cpu.commit.instsCommitted             10000000                       # Number of instructions committed
system.cpu.commit.opsCommitted               17911679                       # Number of ops (including micro ops) committed
system.cpu.commit.memRefs                     2712967                       # Number of memory references committed
system.cpu.commit.loads                       2242684                       # Number of loads committed
system.cpu.commit.amos                              0                       # Number of atomic instructions committed
system.cpu.commit.membars                           0                       # Number of memory barriers committed
system.cpu.commit.branches                    1090188                       # Number of branches committed
system.cpu.commit.vector                            0                       # Number of committed Vector instructions.
system.cpu.commit.floating                    7334339                       # Number of committed floating point instructions.
system.cpu.commit.integer                    12675584                       # Number of committed integer instructions.
system.cpu.commit.functionCalls                142859                       # Number of function calls committed.
system.cpu.commit.committedInstType_0::No_OpClass       304874      1.70%      1.70% # Class of committed instruction
system.cpu.commit.committedInstType_0::IntAlu      9580380     53.49%     55.19% # Class of committed instruction
system.cpu.commit.committedInstType_0::IntMult         1379      0.01%     55.20% # Class of committed instruction
system.cpu.commit.committedInstType_0::IntDiv        97485      0.54%     55.74% # Class of committed instruction
system.cpu.commit.committedInstType_0::FloatAdd       422338      2.36%     58.10% # Class of committed instruction
system.cpu.commit.committedInstType_0::FloatCmp            0      0.00%     58.10% # Class of committed instruction
system.cpu.commit.committedInstType_0::FloatCvt           32      0.00%     58.10% # Class of committed instruction
system.cpu.commit.committedInstType_0::FloatMult            0      0.00%     58.10% # Class of committed instruction
system.cpu.commit.committedInstType_0::FloatMultAcc            0      0.00%     58.10% # Class of committed instruction
system.cpu.commit.committedInstType_0::FloatDiv            0      0.00%     58.10% # Class of committed instruction
system.cpu.commit.committedInstType_0::FloatMisc            0      0.00%     58.10% # Class of committed instruction
system.cpu.commit.committedInstType_0::FloatSqrt            0      0.00%     58.10% # Class of committed instruction
system.cpu.commit.committedInstType_0::SimdAdd         2262      0.01%     58.11% # Class of committed instruction
system.cpu.commit.committedInstType_0::SimdAddAcc            0      0.00%     58.11% # Class of committed instruction
system.cpu.commit.committedInstType_0::SimdAlu       846514      4.73%     62.84% # Class of committed instruction
system.cpu.commit.committedInstType_0::SimdCmp           12      0.00%     62.84% # Class of committed instruction
system.cpu.commit.committedInstType_0::SimdCvt         4818      0.03%     62.86% # Class of committed instruction
system.cpu.commit.committedInstType_0::SimdMisc       846633      4.73%     67.59% # Class of committed instruction
system.cpu.commit.committedInstType_0::SimdMult           64      0.00%     67.59% # Class of committed instruction
system.cpu.commit.committedInstType_0::SimdMultAcc            0      0.00%     67.59% # Class of committed instruction
system.cpu.commit.committedInstType_0::SimdShift          884      0.00%     67.60% # Class of committed instruction
system.cpu.commit.committedInstType_0::SimdShiftAcc            0      0.00%     67.60% # Class of committed instruction
system.cpu.commit.committedInstType_0::SimdDiv            0      0.00%     67.60% # Class of committed instruction
system.cpu.commit.committedInstType_0::SimdSqrt            0      0.00%     67.60% # Class of committed instruction
system.cpu.commit.committedInstType_0::SimdFloatAdd      1405003      7.84%     75.44% # Class of committed instruction
system.cpu.commit.committedInstType_0::SimdFloatAlu            0      0.00%     75.44% # Class of committed instruction
system.cpu.commit.committedInstType_0::SimdFloatCmp            0      0.00%     75.44% # Class of committed instruction
system.cpu.commit.committedInstType_0::SimdFloatCvt       702543      3.92%     79.36% # Class of committed instruction
system.cpu.commit.committedInstType_0::SimdFloatDiv            2      0.00%     79.36% # Class of committed instruction
system.cpu.commit.committedInstType_0::SimdFloatMisc            0      0.00%     79.36% # Class of committed instruction
system.cpu.commit.committedInstType_0::SimdFloatMult       983489      5.49%     84.85% # Class of committed instruction
system.cpu.commit.committedInstType_0::SimdFloatMultAcc            0      0.00%     84.85% # Class of committed instruction
system.cpu.commit.committedInstType_0::SimdFloatSqrt            0      0.00%     84.85% # Class of committed instruction
system.cpu.commit.committedInstType_0::SimdReduceAdd            0      0.00%     84.85% # Class of committed instruction
system.cpu.commit.committedInstType_0::SimdReduceAlu            0      0.00%     84.85% # Class of committed instruction
system.cpu.commit.committedInstType_0::SimdReduceCmp            0      0.00%     84.85% # Class of committed instruction
system.cpu.commit.committedInstType_0::SimdFloatReduceAdd            0      0.00%     84.85% # Class of committed instruction
system.cpu.commit.committedInstType_0::SimdFloatReduceCmp            0      0.00%     84.85% # Class of committed instruction
system.cpu.commit.committedInstType_0::SimdAes            0      0.00%     84.85% # Class of committed instruction
system.cpu.commit.committedInstType_0::SimdAesMix            0      0.00%     84.85% # Class of committed instruction
system.cpu.commit.committedInstType_0::SimdSha1Hash            0      0.00%     84.85% # Class of committed instruction
system.cpu.commit.committedInstType_0::SimdSha1Hash2            0      0.00%     84.85% # Class of committed instruction
system.cpu.commit.committedInstType_0::SimdSha256Hash            0      0.00%     84.85% # Class of committed instruction
system.cpu.commit.committedInstType_0::SimdSha256Hash2            0      0.00%     84.85% # Class of committed instruction
system.cpu.commit.committedInstType_0::SimdShaSigma2            0      0.00%     84.85% # Class of committed instruction
system.cpu.commit.committedInstType_0::SimdShaSigma3            0      0.00%     84.85% # Class of committed instruction
system.cpu.commit.committedInstType_0::SimdPredAlu            0      0.00%     84.85% # Class of committed instruction
system.cpu.commit.committedInstType_0::MemRead       692034      3.86%     88.72% # Class of committed instruction
system.cpu.commit.committedInstType_0::MemWrite       463876      2.59%     91.31% # Class of committed instruction
system.cpu.commit.committedInstType_0::FloatMemRead      1550650      8.66%     99.96% # Class of committed instruction
system.cpu.commit.committedInstType_0::FloatMemWrite         6407      0.04%    100.00% # Class of committed instruction
system.cpu.commit.committedInstType_0::IprAccess            0      0.00%    100.00% # Class of committed instruction
system.cpu.commit.committedInstType_0::InstPrefetch            0      0.00%    100.00% # Class of committed instruction
system.cpu.commit.committedInstType_0::total     17911679                       # Class of committed instruction
system.cpu.commit.commitEligibleSamples        920004                       # number cycles where commit BW limit reached
system.cpu.dcache.demand_hits::.cpu.data      2597598                       # number of demand (read+write) hits
system.cpu.dcache.demand_hits::total          2597598                       # number of demand (read+write) hits
system.cpu.dcache.overall_hits::.cpu.data      2597598                       # number of overall hits
system.cpu.dcache.overall_hits::total         2597598                       # number of overall hits
system.cpu.dcache.demand_misses::.cpu.data        26648                       # number of demand (read+write) misses
system.cpu.dcache.demand_misses::total          26648                       # number of demand (read+write) misses
system.cpu.dcache.overall_misses::.cpu.data        26648                       # number of overall misses
system.cpu.dcache.overall_misses::total         26648                       # number of overall misses
system.cpu.dcache.demand_miss_latency::.cpu.data   1553895498                       # number of demand (read+write) miss cycles
system.cpu.dcache.demand_miss_latency::total   1553895498                       # number of demand (read+write) miss cycles
system.cpu.dcache.overall_miss_latency::.cpu.data   1553895498                       # number of overall miss cycles
system.cpu.dcache.overall_miss_latency::total   1553895498                       # number of overall miss cycles
system.cpu.dcache.demand_accesses::.cpu.data      2624246                       # number of demand (read+write) accesses
system.cpu.dcache.demand_accesses::total      2624246                       # number of demand (read+write) accesses
system.cpu.dcache.overall_accesses::.cpu.data      2624246                       # number of overall (read+write) accesses
system.cpu.dcache.overall_accesses::total      2624246                       # number of overall (read+write) accesses
system.cpu.dcache.demand_miss_rate::.cpu.data     0.010155                       # miss rate for demand accesses
system.cpu.dcache.demand_miss_rate::total     0.010155                       # miss rate for demand accesses
system.cpu.dcache.overall_miss_rate::.cpu.data     0.010155                       # miss rate for overall accesses
system.cpu.dcache.overall_miss_rate::total     0.010155                       # miss rate for overall accesses
system.cpu.dcache.demand_avg_miss_latency::.cpu.data 58311.899505                       # average overall miss latency
system.cpu.dcache.demand_avg_miss_latency::total 58311.899505                       # average overall miss latency
system.cpu.dcache.overall_avg_miss_latency::.cpu.data 58311.899505                       # average overall miss latency
system.cpu.dcache.overall_avg_miss_latency::total 58311.899505                       # average overall miss latency
system.cpu.dcache.blocked_cycles::no_mshrs        17345                       # number of cycles access was blocked
system.cpu.dcache.blocked_cycles::no_targets            4                       # number of cycles access was blocked
system.cpu.dcache.blocked::no_mshrs               475                       # number of cycles access was blocked
system.cpu.dcache.blocked::no_targets               1                       # number of cycles access was blocked
system.cpu.dcache.avg_blocked_cycles::no_mshrs    36.515789                       # average number of cycles each access was blocked
system.cpu.dcache.avg_blocked_cycles::no_targets            4                       # average number of cycles each access was blocked
system.cpu.dcache.writebacks::.writebacks        11013                       # number of writebacks
system.cpu.dcache.writebacks::total             11013                       # number of writebacks
system.cpu.dcache.demand_mshr_hits::.cpu.data        11942                       # number of demand (read+write) MSHR hits
system.cpu.dcache.demand_mshr_hits::total        11942                       # number of demand (read+write) MSHR hits
system.cpu.dcache.overall_mshr_hits::.cpu.data        11942                       # number of overall MSHR hits
system.cpu.dcache.overall_mshr_hits::total        11942                       # number of overall MSHR hits
system.cpu.dcache.demand_mshr_misses::.cpu.data        14706                       # number of demand (read+write) MSHR misses
system.cpu.dcache.demand_mshr_misses::total        14706                       # number of demand (read+write) MSHR misses
system.cpu.dcache.overall_mshr_misses::.cpu.data        14706                       # number of overall MSHR misses
system.cpu.dcache.overall_mshr_misses::total        14706                       # number of overall MSHR misses
system.cpu.dcache.demand_mshr_miss_latency::.cpu.data    944836498                       # number of demand (read+write) MSHR miss cycles
system.cpu.dcache.demand_mshr_miss_latency::total    944836498                       # number of demand (read+write) MSHR miss cycles
system.cpu.dcache.overall_mshr_miss_latency::.cpu.data    944836498                       # number of overall MSHR miss cycles
system.cpu.dcache.overall_mshr_miss_latency::total    944836498                       # number of overall MSHR miss cycles
system.cpu.dcache.demand_mshr_miss_rate::.cpu.data     0.005604                       # mshr miss rate for demand accesses
system.cpu.dcache.demand_mshr_miss_rate::total     0.005604                       # mshr miss rate for demand accesses
system.cpu.dcache.overall_mshr_miss_rate::.cpu.data     0.005604                       # mshr miss rate for overall accesses
system.cpu.dcache.overall_mshr_miss_rate::total     0.005604                       # mshr miss rate for overall accesses
system.cpu.dcache.demand_avg_mshr_miss_latency::.cpu.data 64248.367877                       # average overall mshr miss latency
system.cpu.dcache.demand_avg_mshr_miss_latency::total 64248.367877                       # average overall mshr miss latency
system.cpu.dcache.overall_avg_mshr_miss_latency::.cpu.data 64248.367877                       # average overall mshr miss latency
system.cpu.dcache.overall_avg_mshr_miss_latency::total 64248.367877                       # average overall mshr miss latency
system.cpu.dcache.replacements                  14194                       # number of replacements
system.cpu.dcache.ReadReq_hits::.cpu.data      2138002                       # number of ReadReq hits
system.cpu.dcache.ReadReq_hits::total         2138002                       # number of ReadReq hits
system.cpu.dcache.ReadReq_misses::.cpu.data        15939                       # number of ReadReq misses
system.cpu.dcache.ReadReq_misses::total         15939                       # number of ReadReq misses
system.cpu.dcache.ReadReq_miss_latency::.cpu.data    801432500                       # number of ReadReq miss cycles
system.cpu.dcache.ReadReq_miss_latency::total    801432500                       # number of ReadReq miss cycles
system.cpu.dcache.ReadReq_accesses::.cpu.data      2153941                       # number of ReadReq accesses(hits+misses)
system.cpu.dcache.ReadReq_accesses::total      2153941                       # number of ReadReq accesses(hits+misses)
system.cpu.dcache.ReadReq_miss_rate::.cpu.data     0.007400                       # miss rate for ReadReq accesses
system.cpu.dcache.ReadReq_miss_rate::total     0.007400                       # miss rate for ReadReq accesses
system.cpu.dcache.ReadReq_avg_miss_latency::.cpu.data 50281.228433                       # average ReadReq miss latency
system.cpu.dcache.ReadReq_avg_miss_latency::total 50281.228433                       # average ReadReq miss latency
system.cpu.dcache.ReadReq_mshr_hits::.cpu.data        11937                       # number of ReadReq MSHR hits
system.cpu.dcache.ReadReq_mshr_hits::total        11937                       # number of ReadReq MSHR hits
system.cpu.dcache.ReadReq_mshr_misses::.cpu.data         4002                       # number of ReadReq MSHR misses
system.cpu.dcache.ReadReq_mshr_misses::total         4002                       # number of ReadReq MSHR misses
system.cpu.dcache.ReadReq_mshr_miss_latency::.cpu.data    203317000                       # number of ReadReq MSHR miss cycles
system.cpu.dcache.ReadReq_mshr_miss_latency::total    203317000                       # number of ReadReq MSHR miss cycles
system.cpu.dcache.ReadReq_mshr_miss_rate::.cpu.data     0.001858                       # mshr miss rate for ReadReq accesses
system.cpu.dcache.ReadReq_mshr_miss_rate::total     0.001858                       # mshr miss rate for ReadReq accesses
system.cpu.dcache.ReadReq_avg_mshr_miss_latency::.cpu.data 50803.848076                       # average ReadReq mshr miss latency
system.cpu.dcache.ReadReq_avg_mshr_miss_latency::total 50803.848076                       # average ReadReq mshr miss latency
system.cpu.dcache.WriteReq_hits::.cpu.data       459596                       # number of WriteReq hits
system.cpu.dcache.WriteReq_hits::total         459596                       # number of WriteReq hits
system.cpu.dcache.WriteReq_misses::.cpu.data        10709                       # number of WriteReq misses
system.cpu.dcache.WriteReq_misses::total        10709                       # number of WriteReq misses
system.cpu.dcache.WriteReq_miss_latency::.cpu.data    752462998                       # number of WriteReq miss cycles
system.cpu.dcache.WriteReq_miss_latency::total    752462998                       # number of WriteReq miss cycles
system.cpu.dcache.WriteReq_accesses::.cpu.data       470305                       # number of WriteReq accesses(hits+misses)
system.cpu.dcache.WriteReq_accesses::total       470305                       # number of WriteReq accesses(hits+misses)
system.cpu.dcache.WriteReq_miss_rate::.cpu.data     0.022770                       # miss rate for WriteReq accesses
system.cpu.dcache.WriteReq_miss_rate::total     0.022770                       # miss rate for WriteReq accesses
system.cpu.dcache.WriteReq_avg_miss_latency::.cpu.data 70264.543655                       # average WriteReq miss latency
system.cpu.dcache.WriteReq_avg_miss_latency::total 70264.543655                       # average WriteReq miss latency
system.cpu.dcache.WriteReq_mshr_hits::.cpu.data            5                       # number of WriteReq MSHR hits
system.cpu.dcache.WriteReq_mshr_hits::total            5                       # number of WriteReq MSHR hits
system.cpu.dcache.WriteReq_mshr_misses::.cpu.data        10704                       # number of WriteReq MSHR misses
system.cpu.dcache.WriteReq_mshr_misses::total        10704                       # number of WriteReq MSHR misses
system.cpu.dcache.WriteReq_mshr_miss_latency::.cpu.data    741519498                       # number of WriteReq MSHR miss cycles
system.cpu.dcache.WriteReq_mshr_miss_latency::total    741519498                       # number of WriteReq MSHR miss cycles
system.cpu.dcache.WriteReq_mshr_miss_rate::.cpu.data     0.022760                       # mshr miss rate for WriteReq accesses
system.cpu.dcache.WriteReq_mshr_miss_rate::total     0.022760                       # mshr miss rate for WriteReq accesses
system.cpu.dcache.WriteReq_avg_mshr_miss_latency::.cpu.data 69274.990471                       # average WriteReq mshr miss latency
system.cpu.dcache.WriteReq_avg_mshr_miss_latency::total 69274.990471                       # average WriteReq mshr miss latency
system.cpu.dcache.power_state.pwrStateResidencyTicks::UNDEFINED   2924080500                       # Cumulative time (in ticks) in various power states
system.cpu.dcache.tags.tagsinuse           506.364606                       # Cycle average of tags in use
system.cpu.dcache.tags.total_refs             2612304                       # Total number of references to valid blocks.
system.cpu.dcache.tags.sampled_refs             14706                       # Sample count of references to valid blocks.
system.cpu.dcache.tags.avg_refs            177.635251                       # Average number of references to valid blocks.
system.cpu.dcache.tags.warmup_cycle            163000                       # Cycle when the warmup percentage was hit.
system.cpu.dcache.tags.occ_blocks::.cpu.data   506.364606                       # Average occupied blocks per requestor
system.cpu.dcache.tags.occ_percent::.cpu.data     0.988993                       # Average percentage of cache occupancy
system.cpu.dcache.tags.occ_percent::total     0.988993                       # Average percentage of cache occupancy
system.cpu.dcache.tags.occ_task_id_blocks::1024          512                       # Occupied blocks per task id
system.cpu.dcache.tags.age_task_id_blocks_1024::0           38                       # Occupied blocks per task id
system.cpu.dcache.tags.age_task_id_blocks_1024::1          326                       # Occupied blocks per task id
system.cpu.dcache.tags.age_task_id_blocks_1024::2          140                       # Occupied blocks per task id
system.cpu.dcache.tags.age_task_id_blocks_1024::3            8                       # Occupied blocks per task id
system.cpu.dcache.tags.occ_task_id_percent::1024            1                       # Percentage of cache occupancy per task id
system.cpu.dcache.tags.tag_accesses           5263198                       # Number of tag accesses
system.cpu.dcache.tags.data_accesses          5263198                       # Number of data accesses
system.cpu.dcache.tags.power_state.pwrStateResidencyTicks::UNDEFINED   2924080500                       # Cumulative time (in ticks) in various power states
system.cpu.decode.idleCycles                   705927                       # Number of cycles decode is idle
system.cpu.decode.blockedCycles               2611164                       # Number of cycles decode is blocked
system.cpu.decode.runCycles                   1073534                       # Number of cycles decode is running
system.cpu.decode.unblockCycles               1304141                       # Number of cycles decode is unblocking
system.cpu.decode.squashCycles                  14794                       # Number of cycles decode is squashing
system.cpu.decode.branchResolved               334661                       # Number of times decode resolved a  branch
system.cpu.decode.branchMispred                  1185                       # Number of times decode detected a branch misprediction
system.cpu.decode.decodedInsts               18772162                       # Number of instructions handled by decode
system.cpu.decode.squashedInsts                  5550                       # Number of squashed instructions handled by decode
system.cpu.dtb.rdAccesses                     2302556                       # TLB accesses on read requests
system.cpu.dtb.wrAccesses                      485818                       # TLB accesses on write requests
system.cpu.dtb.rdMisses                           573                       # TLB misses on read requests
system.cpu.dtb.wrMisses                           707                       # TLB misses on write requests
system.cpu.dtb.walker.power_state.pwrStateResidencyTicks::UNDEFINED   2924080500                       # Cumulative time (in ticks) in various power states
system.cpu.dtb_walker_cache.blocked_cycles::no_mshrs            0                       # number of cycles access was blocked
system.cpu.dtb_walker_cache.blocked_cycles::no_targets            0                       # number of cycles access was blocked
system.cpu.dtb_walker_cache.blocked::no_mshrs            0                       # number of cycles access was blocked
system.cpu.dtb_walker_cache.blocked::no_targets            0                       # number of cycles access was blocked
system.cpu.dtb_walker_cache.avg_blocked_cycles::no_mshrs          nan                       # average number of cycles each access was blocked
system.cpu.dtb_walker_cache.avg_blocked_cycles::no_targets          nan                       # average number of cycles each access was blocked
system.cpu.dtb_walker_cache.replacements            0                       # number of replacements
system.cpu.dtb_walker_cache.power_state.pwrStateResidencyTicks::UNDEFINED   2924080500                       # Cumulative time (in ticks) in various power states
system.cpu.dtb_walker_cache.tags.tagsinuse            0                       # Cycle average of tags in use
system.cpu.dtb_walker_cache.tags.total_refs            0                       # Total number of references to valid blocks.
system.cpu.dtb_walker_cache.tags.sampled_refs            0                       # Sample count of references to valid blocks.
system.cpu.dtb_walker_cache.tags.avg_refs          nan                       # Average number of references to valid blocks.
system.cpu.dtb_walker_cache.tags.warmup_cycle            0                       # Cycle when the warmup percentage was hit.
system.cpu.dtb_walker_cache.tags.tag_accesses            0                       # Number of tag accesses
system.cpu.dtb_walker_cache.tags.data_accesses            0                       # Number of data accesses
system.cpu.dtb_walker_cache.tags.power_state.pwrStateResidencyTicks::UNDEFINED   2924080500                       # Cumulative time (in ticks) in various power states
system.cpu.fetch.icacheStallCycles            1325006                       # Number of cycles fetch is stalled on an Icache miss
system.cpu.fetch.insts                       10498576                       # Number of instructions fetch has processed
system.cpu.fetch.branches                     1186379                       # Number of branches that fetch encountered
system.cpu.fetch.predictedBranches             626377                       # Number of branches that fetch has predicted taken
system.cpu.fetch.cycles                       4364011                       # Number of cycles fetch has run and was not squashing or blocked
system.cpu.fetch.squashCycles                   31894                       # Number of cycles fetch has spent squashing
system.cpu.fetch.miscStallCycles                  555                       # Number of cycles fetch has spent waiting on interrupts,or bad addresses, or out of MSHRs
system.cpu.fetch.pendingTrapStallCycles          3977                       # Number of stall cycles due to pending traps
system.cpu.fetch.pendingQuiesceStallCycles            9                       # Number of stall cycles due to pending quiesce instructions
system.cpu.fetch.icacheWaitRetryStallCycles           55                       # Number of stall cycles due to full MSHR
system.cpu.fetch.cacheLines                   1248624                       # Number of cache lines fetched
system.cpu.fetch.icacheSquashes                  4580                       # Number of outstanding Icache misses that were squashed
system.cpu.fetch.nisnDist::samples            5709560                       # Number of instructions fetched each cycle (Total)
system.cpu.fetch.nisnDist::mean              3.323887                       # Number of instructions fetched each cycle (Total)
system.cpu.fetch.nisnDist::stdev             3.559013                       # Number of instructions fetched each cycle (Total)
system.cpu.fetch.nisnDist::underflows               0      0.00%      0.00% # Number of instructions fetched each cycle (Total)
system.cpu.fetch.nisnDist::0                  2538232     44.46%     44.46% # Number of instructions fetched each cycle (Total)
system.cpu.fetch.nisnDist::1                   265469      4.65%     49.11% # Number of instructions fetched each cycle (Total)
system.cpu.fetch.nisnDist::2                   374714      6.56%     55.67% # Number of instructions fetched each cycle (Total)
system.cpu.fetch.nisnDist::3                   116732      2.04%     57.71% # Number of instructions fetched each cycle (Total)
system.cpu.fetch.nisnDist::4                   224835      3.94%     61.65% # Number of instructions fetched each cycle (Total)
system.cpu.fetch.nisnDist::5                   121466      2.13%     63.78% # Number of instructions fetched each cycle (Total)
system.cpu.fetch.nisnDist::6                    86932      1.52%     65.30% # Number of instructions fetched each cycle (Total)
system.cpu.fetch.nisnDist::7                   264865      4.64%     69.94% # Number of instructions fetched each cycle (Total)
system.cpu.fetch.nisnDist::8                  1716315     30.06%    100.00% # Number of instructions fetched each cycle (Total)
system.cpu.fetch.nisnDist::overflows                0      0.00%    100.00% # Number of instructions fetched each cycle (Total)
system.cpu.fetch.nisnDist::min_value                0                       # Number of instructions fetched each cycle (Total)
system.cpu.fetch.nisnDist::max_value                8                       # Number of instructions fetched each cycle (Total)
system.cpu.fetch.nisnDist::total              5709560                       # Number of instructions fetched each cycle (Total)
system.cpu.fetch.branchRate                  0.202864                       # Number of branch fetches per cycle
system.cpu.fetch.rate                        1.795192                       # Number of inst fetches per cycle
system.cpu.icache.demand_hits::.cpu.inst      1244901                       # number of demand (read+write) hits
system.cpu.icache.demand_hits::total          1244901                       # number of demand (read+write) hits
system.cpu.icache.overall_hits::.cpu.inst      1244901                       # number of overall hits
system.cpu.icache.overall_hits::total         1244901                       # number of overall hits
system.cpu.icache.demand_misses::.cpu.inst         3722                       # number of demand (read+write) misses
system.cpu.icache.demand_misses::total           3722                       # number of demand (read+write) misses
system.cpu.icache.overall_misses::.cpu.inst         3722                       # number of overall misses
system.cpu.icache.overall_misses::total          3722                       # number of overall misses
system.cpu.icache.demand_miss_latency::.cpu.inst    215228500                       # number of demand (read+write) miss cycles
system.cpu.icache.demand_miss_latency::total    215228500                       # number of demand (read+write) miss cycles
system.cpu.icache.overall_miss_latency::.cpu.inst    215228500                       # number of overall miss cycles
system.cpu.icache.overall_miss_latency::total    215228500                       # number of overall miss cycles
system.cpu.icache.demand_accesses::.cpu.inst      1248623                       # number of demand (read+write) accesses
system.cpu.icache.demand_accesses::total      1248623                       # number of demand (read+write) accesses
system.cpu.icache.overall_accesses::.cpu.inst      1248623                       # number of overall (read+write) accesses
system.cpu.icache.overall_accesses::total      1248623                       # number of overall (read+write) accesses
system.cpu.icache.demand_miss_rate::.cpu.inst     0.002981                       # miss rate for demand accesses
system.cpu.icache.demand_miss_rate::total     0.002981                       # miss rate for demand accesses
system.cpu.icache.overall_miss_rate::.cpu.inst     0.002981                       # miss rate for overall accesses
system.cpu.icache.overall_miss_rate::total     0.002981                       # miss rate for overall accesses
system.cpu.icache.demand_avg_miss_latency::.cpu.inst 57826.034390                       # average overall miss latency
system.cpu.icache.demand_avg_miss_latency::total 57826.034390                       # average overall miss latency
system.cpu.icache.overall_avg_miss_latency::.cpu.inst 57826.034390                       # average overall miss latency
system.cpu.icache.overall_avg_miss_latency::total 57826.034390                       # average overall miss latency
system.cpu.icache.blocked_cycles::no_mshrs          825                       # number of cycles access was blocked
system.cpu.icache.blocked_cycles::no_targets            0                       # number of cycles access was blocked
system.cpu.icache.blocked::no_mshrs                18                       # number of cycles access was blocked
system.cpu.icache.blocked::no_targets               0                       # number of cycles access was blocked
system.cpu.icache.avg_blocked_cycles::no_mshrs    45.833333                       # average number of cycles each access was blocked
system.cpu.icache.avg_blocked_cycles::no_targets          nan                       # average number of cycles each access was blocked
system.cpu.icache.writebacks::.writebacks         2183                       # number of writebacks
system.cpu.icache.writebacks::total              2183                       # number of writebacks
system.cpu.icache.demand_mshr_hits::.cpu.inst         1028                       # number of demand (read+write) MSHR hits
system.cpu.icache.demand_mshr_hits::total         1028                       # number of demand (read+write) MSHR hits
system.cpu.icache.overall_mshr_hits::.cpu.inst         1028                       # number of overall MSHR hits
system.cpu.icache.overall_mshr_hits::total         1028                       # number of overall MSHR hits
system.cpu.icache.demand_mshr_misses::.cpu.inst         2694                       # number of demand (read+write) MSHR misses
system.cpu.icache.demand_mshr_misses::total         2694                       # number of demand (read+write) MSHR misses
system.cpu.icache.overall_mshr_misses::.cpu.inst         2694                       # number of overall MSHR misses
system.cpu.icache.overall_mshr_misses::total         2694                       # number of overall MSHR misses
system.cpu.icache.demand_mshr_miss_latency::.cpu.inst    160099500                       # number of demand (read+write) MSHR miss cycles
system.cpu.icache.demand_mshr_miss_latency::total    160099500                       # number of demand (read+write) MSHR miss cycles
system.cpu.icache.overall_mshr_miss_latency::.cpu.inst    160099500                       # number of overall MSHR miss cycles
system.cpu.icache.overall_mshr_miss_latency::total    160099500                       # number of overall MSHR miss cycles
system.cpu.icache.demand_mshr_miss_rate::.cpu.inst     0.002158                       # mshr miss rate for demand accesses
system.cpu.icache.demand_mshr_miss_rate::total     0.002158                       # mshr miss rate for demand accesses
system.cpu.icache.overall_mshr_miss_rate::.cpu.inst     0.002158                       # mshr miss rate for overall accesses
system.cpu.icache.overall_mshr_miss_rate::total     0.002158                       # mshr miss rate for overall accesses
system.cpu.icache.demand_avg_mshr_miss_latency::.cpu.inst 59428.173719                       # average overall mshr miss latency
system.cpu.icache.demand_avg_mshr_miss_latency::total 59428.173719                       # average overall mshr miss latency
system.cpu.icache.overall_avg_mshr_miss_latency::.cpu.inst 59428.173719                       # average overall mshr miss latency
system.cpu.icache.overall_avg_mshr_miss_latency::total 59428.173719                       # average overall mshr miss latency
system.cpu.icache.replacements                   2183                       # number of replacements
system.cpu.icache.ReadReq_hits::.cpu.inst      1244901                       # number of ReadReq hits
system.cpu.icache.ReadReq_hits::total         1244901                       # number of ReadReq hits
system.cpu.icache.ReadReq_misses::.cpu.inst         3722                       # number of ReadReq misses
system.cpu.icache.ReadReq_misses::total          3722                       # number of ReadReq misses
system.cpu.icache.ReadReq_miss_latency::.cpu.inst    215228500                       # number of ReadReq miss cycles
system.cpu.icache.ReadReq_miss_latency::total    215228500                       # number of ReadReq miss cycles
system.cpu.icache.ReadReq_accesses::.cpu.inst      1248623                       # number of ReadReq accesses(hits+misses)
system.cpu.icache.ReadReq_accesses::total      1248623                       # number of ReadReq accesses(hits+misses)
system.cpu.icache.ReadReq_miss_rate::.cpu.inst     0.002981                       # miss rate for ReadReq accesses
system.cpu.icache.ReadReq_miss_rate::total     0.002981                       # miss rate for ReadReq accesses
system.cpu.icache.ReadReq_avg_miss_latency::.cpu.inst 57826.034390                       # average ReadReq miss latency
system.cpu.icache.ReadReq_avg_miss_latency::total 57826.034390                       # average ReadReq miss latency
system.cpu.icache.ReadReq_mshr_hits::.cpu.inst         1028                       # number of ReadReq MSHR hits
system.cpu.icache.ReadReq_mshr_hits::total         1028                       # number of ReadReq MSHR hits
system.cpu.icache.ReadReq_mshr_misses::.cpu.inst         2694                       # number of ReadReq MSHR misses
system.cpu.icache.ReadReq_mshr_misses::total         2694                       # number of ReadReq MSHR misses
system.cpu.icache.ReadReq_mshr_miss_latency::.cpu.inst    160099500                       # number of ReadReq MSHR miss cycles
system.cpu.icache.ReadReq_mshr_miss_latency::total    160099500                       # number of ReadReq MSHR miss cycles
system.cpu.icache.ReadReq_mshr_miss_rate::.cpu.inst     0.002158                       # mshr miss rate for ReadReq accesses
system.cpu.icache.ReadReq_mshr_miss_rate::total     0.002158                       # mshr miss rate for ReadReq accesses
system.cpu.icache.ReadReq_avg_mshr_miss_latency::.cpu.inst 59428.173719                       # average ReadReq mshr miss latency
system.cpu.icache.ReadReq_avg_mshr_miss_latency::total 59428.173719                       # average ReadReq mshr miss latency
system.cpu.icache.power_state.pwrStateResidencyTicks::UNDEFINED   2924080500                       # Cumulative time (in ticks) in various power states
system.cpu.icache.tags.tagsinuse           505.500279                       # Cycle average of tags in use
system.cpu.icache.tags.total_refs             1247595                       # Total number of references to valid blocks.
system.cpu.icache.tags.sampled_refs              2694                       # Sample count of references to valid blocks.
system.cpu.icache.tags.avg_refs            463.101336                       # Average number of references to valid blocks.
system.cpu.icache.tags.warmup_cycle             79500                       # Cycle when the warmup percentage was hit.
system.cpu.icache.tags.occ_blocks::.cpu.inst   505.500279                       # Average occupied blocks per requestor
system.cpu.icache.tags.occ_percent::.cpu.inst     0.987305                       # Average percentage of cache occupancy
system.cpu.icache.tags.occ_percent::total     0.987305                       # Average percentage of cache occupancy
system.cpu.icache.tags.occ_task_id_blocks::1024          511                       # Occupied blocks per task id
system.cpu.icache.tags.age_task_id_blocks_1024::2            2                       # Occupied blocks per task id
system.cpu.icache.tags.age_task_id_blocks_1024::3          509                       # Occupied blocks per task id
system.cpu.icache.tags.occ_task_id_percent::1024     0.998047                       # Percentage of cache occupancy per task id
system.cpu.icache.tags.tag_accesses           2499940                       # Number of tag accesses
system.cpu.icache.tags.data_accesses          2499940                       # Number of data accesses
system.cpu.icache.tags.power_state.pwrStateResidencyTicks::UNDEFINED   2924080500                       # Cumulative time (in ticks) in various power states
system.cpu.interrupts.clk_domain.clock           8000                       # Clock period in ticks
system.cpu.itb.rdAccesses                           0                       # TLB accesses on read requests
system.cpu.itb.wrAccesses                     1249249                       # TLB accesses on write requests
system.cpu.itb.rdMisses                             0                       # TLB misses on read requests
system.cpu.itb.wrMisses                           851                       # TLB misses on write requests
system.cpu.itb.walker.power_state.pwrStateResidencyTicks::UNDEFINED   2924080500                       # Cumulative time (in ticks) in various power states
system.cpu.itb_walker_cache.blocked_cycles::no_mshrs            0                       # number of cycles access was blocked
system.cpu.itb_walker_cache.blocked_cycles::no_targets            0                       # number of cycles access was blocked
system.cpu.itb_walker_cache.blocked::no_mshrs            0                       # number of cycles access was blocked
system.cpu.itb_walker_cache.blocked::no_targets            0                       # number of cycles access was blocked
system.cpu.itb_walker_cache.avg_blocked_cycles::no_mshrs          nan                       # average number of cycles each access was blocked
system.cpu.itb_walker_cache.avg_blocked_cycles::no_targets          nan                       # average number of cycles each access was blocked
system.cpu.itb_walker_cache.replacements            0                       # number of replacements
system.cpu.itb_walker_cache.power_state.pwrStateResidencyTicks::UNDEFINED   2924080500                       # Cumulative time (in ticks) in various power states
system.cpu.itb_walker_cache.tags.tagsinuse            0                       # Cycle average of tags in use
system.cpu.itb_walker_cache.tags.total_refs            0                       # Total number of references to valid blocks.
system.cpu.itb_walker_cache.tags.sampled_refs            0                       # Sample count of references to valid blocks.
system.cpu.itb_walker_cache.tags.avg_refs          nan                       # Average number of references to valid blocks.
system.cpu.itb_walker_cache.tags.warmup_cycle            0                       # Cycle when the warmup percentage was hit.
system.cpu.itb_walker_cache.tags.tag_accesses            0                       # Number of tag accesses
system.cpu.itb_walker_cache.tags.data_accesses            0                       # Number of data accesses
system.cpu.itb_walker_cache.tags.power_state.pwrStateResidencyTicks::UNDEFINED   2924080500                       # Cumulative time (in ticks) in various power states
system.cpu.lsq0.forwLoads                      148126                       # Number of loads that had data forwarded from stores
system.cpu.lsq0.squashedLoads                   81306                       # Number of loads squashed
system.cpu.lsq0.ignoredResponses                   61                       # Number of memory responses ignored because the instruction is squashed
system.cpu.lsq0.memOrderViolation                 156                       # Number of memory ordering violations
system.cpu.lsq0.squashedStores                  27817                       # Number of stores squashed
system.cpu.lsq0.rescheduledLoads                   25                       # Number of loads that were rescheduled
system.cpu.lsq0.blockedByCache                    356                       # Number of times an access to memory failed due to the cache being blocked
system.cpu.power_state.pwrStateResidencyTicks::ON   2924080500                       # Cumulative time (in ticks) in various power states
system.cpu.rename.squashCycles                  14794                       # Number of cycles rename is squashing
system.cpu.rename.idleCycles                  1090901                       # Number of cycles rename is idle
system.cpu.rename.blockCycles                  287376                       # Number of cycles rename is blocking
system.cpu.rename.serializeStallCycles           3055                       # count of cycles rename stalledfor serializing inst
system.cpu.rename.runCycles                   1987682                       # Number of cycles rename is running
system.cpu.rename.unblockCycles               2325752                       # Number of cycles rename is unblocking
system.cpu.rename.renamedInsts               18706068                       # Number of instructions processed by rename
system.cpu.rename.ROBFullEvents                  2911                       # Number of times rename has blocked due to ROB full
system.cpu.rename.IQFullEvents                1866952                       # Number of times rename has blocked due to IQ full
system.cpu.rename.LQFullEvents                    953                       # Number of times rename has blocked due to LQ full
system.cpu.rename.SQFullEvents                 159106                       # Number of times rename has blocked due to SQ full
system.cpu.rename.renamedOperands            21387641                       # Number of destination operands rename has renamed
system.cpu.rename.lookups                    43360015                       # Number of register rename lookups that rename has made
system.cpu.rename.intLookups                 19484953                       # Number of integer rename lookups
system.cpu.rename.fpLookups                  12351289                       # Number of floating rename lookups
system.cpu.rename.committedMaps              20388214                       # Number of HB maps that are committed
system.cpu.rename.undoneMaps                   999279                       # Number of HB maps that are undone due to squashing
system.cpu.rename.serializing                      65                       # count of serializing insts renamed
system.cpu.rename.tempSerializing                  29                       # count of temporary serializing insts renamed
system.cpu.rename.skidInsts                   5300726                       # count of insts added to the skid buffer
system.cpu.rob.reads                         23272066                       # The number of ROB reads
system.cpu.rob.writes                        37265431                       # The number of ROB writes
system.cpu.thread_0.numInsts                 10000000                       # Number of Instructions committed
system.cpu.thread_0.numOps                   17911679                       # Number of Ops committed
system.cpu.thread_0.numMemRefs                      0                       # Number of Memory References
system.cpu_clk_domain.clock                       500                       # Clock period in ticks
system.cpu_voltage_domain.voltage                   1                       # Voltage in Volts
system.l2.demand_hits::.cpu.inst                  528                       # number of demand (read+write) hits
system.l2.demand_hits::.cpu.data                 1659                       # number of demand (read+write) hits
system.l2.demand_hits::total                     2187                       # number of demand (read+write) hits
system.l2.overall_hits::.cpu.inst                 528                       # number of overall hits
system.l2.overall_hits::.cpu.data                1659                       # number of overall hits
system.l2.overall_hits::total                    2187                       # number of overall hits
system.l2.demand_misses::.cpu.inst               2164                       # number of demand (read+write) misses
system.l2.demand_misses::.cpu.data              13047                       # number of demand (read+write) misses
system.l2.demand_misses::total                  15211                       # number of demand (read+write) misses
system.l2.overall_misses::.cpu.inst              2164                       # number of overall misses
system.l2.overall_misses::.cpu.data             13047                       # number of overall misses
system.l2.overall_misses::total                 15211                       # number of overall misses
system.l2.demand_miss_latency::.cpu.inst    150412000                       # number of demand (read+write) miss cycles
system.l2.demand_miss_latency::.cpu.data    904996000                       # number of demand (read+write) miss cycles
system.l2.demand_miss_latency::total       1055408000                       # number of demand (read+write) miss cycles
system.l2.overall_miss_latency::.cpu.inst    150412000                       # number of overall miss cycles
system.l2.overall_miss_latency::.cpu.data    904996000                       # number of overall miss cycles
system.l2.overall_miss_latency::total      1055408000                       # number of overall miss cycles
system.l2.demand_accesses::.cpu.inst             2692                       # number of demand (read+write) accesses
system.l2.demand_accesses::.cpu.data            14706                       # number of demand (read+write) accesses
system.l2.demand_accesses::total                17398                       # number of demand (read+write) accesses
system.l2.overall_accesses::.cpu.inst            2692                       # number of overall (read+write) accesses
system.l2.overall_accesses::.cpu.data           14706                       # number of overall (read+write) accesses
system.l2.overall_accesses::total               17398                       # number of overall (read+write) accesses
system.l2.demand_miss_rate::.cpu.inst        0.803863                       # miss rate for demand accesses
system.l2.demand_miss_rate::.cpu.data        0.887189                       # miss rate for demand accesses
system.l2.demand_miss_rate::total            0.874296                       # miss rate for demand accesses
system.l2.overall_miss_rate::.cpu.inst       0.803863                       # miss rate for overall accesses
system.l2.overall_miss_rate::.cpu.data       0.887189                       # miss rate for overall accesses
system.l2.overall_miss_rate::total           0.874296                       # miss rate for overall accesses
system.l2.demand_avg_miss_latency::.cpu.inst 69506.469501                       # average overall miss latency
system.l2.demand_avg_miss_latency::.cpu.data 69364.298306                       # average overall miss latency
system.l2.demand_avg_miss_latency::total 69384.524357                       # average overall miss latency
system.l2.overall_avg_miss_latency::.cpu.inst 69506.469501                       # average overall miss latency
system.l2.overall_avg_miss_latency::.cpu.data 69364.298306                       # average overall miss latency
system.l2.overall_avg_miss_latency::total 69384.524357                       # average overall miss latency
[...]
system.mem_ctrls.dram.bw_total::.cpu.data    285562590                       # Total bandwidth to/from this memory (bytes/s)
system.mem_ctrls.dram.bw_total::total       384930579                       # Total bandwidth to/from this memory (bytes/s)
system.mem_ctrls.dram.readBursts                15205                       # Number of DRAM read bursts
system.mem_ctrls.dram.writeBursts                2346                       # Number of DRAM write bursts
system.mem_ctrls.dram.perBankRdBursts::0         1146                       # Per bank write bursts
system.mem_ctrls.dram.perBankRdBursts::1          961                       # Per bank write bursts
system.mem_ctrls.dram.perBankRdBursts::2          825                       # Per bank write bursts
system.mem_ctrls.dram.perBankRdBursts::3          867                       # Per bank write bursts
system.mem_ctrls.dram.perBankRdBursts::4          974                       # Per bank write bursts
system.mem_ctrls.dram.perBankRdBursts::5          961                       # Per bank write bursts
system.mem_ctrls.dram.perBankRdBursts::6         1013                       # Per bank write bursts
system.mem_ctrls.dram.perBankRdBursts::7          952                       # Per bank write bursts
system.mem_ctrls.dram.perBankRdBursts::8          957                       # Per bank write bursts
system.mem_ctrls.dram.perBankRdBursts::9          914                       # Per bank write bursts
system.mem_ctrls.dram.perBankRdBursts::10          791                       # Per bank write bursts
system.mem_ctrls.dram.perBankRdBursts::11         1017                       # Per bank write bursts
system.mem_ctrls.dram.perBankRdBursts::12          845                       # Per bank write bursts
system.mem_ctrls.dram.perBankRdBursts::13          882                       # Per bank write bursts
system.mem_ctrls.dram.perBankRdBursts::14         1057                       # Per bank write bursts
system.mem_ctrls.dram.perBankRdBursts::15         1043                       # Per bank write bursts
system.mem_ctrls.dram.perBankWrBursts::0          189                       # Per bank write bursts
system.mem_ctrls.dram.perBankWrBursts::1           51                       # Per bank write bursts
system.mem_ctrls.dram.perBankWrBursts::2           79                       # Per bank write bursts
system.mem_ctrls.dram.perBankWrBursts::3          110                       # Per bank write bursts
system.mem_ctrls.dram.perBankWrBursts::4          110                       # Per bank write bursts
system.mem_ctrls.dram.perBankWrBursts::5          229                       # Per bank write bursts
system.mem_ctrls.dram.perBankWrBursts::6          247                       # Per bank write bursts
system.mem_ctrls.dram.perBankWrBursts::7          181                       # Per bank write bursts
system.mem_ctrls.dram.perBankWrBursts::8          142                       # Per bank write bursts
system.mem_ctrls.dram.perBankWrBursts::9           66                       # Per bank write bursts
system.mem_ctrls.dram.perBankWrBursts::10          110                       # Per bank write bursts
system.mem_ctrls.dram.perBankWrBursts::11          151                       # Per bank write bursts
system.mem_ctrls.dram.perBankWrBursts::12           22                       # Per bank write bursts
system.mem_ctrls.dram.perBankWrBursts::13          138                       # Per bank write bursts
system.mem_ctrls.dram.perBankWrBursts::14          330                       # Per bank write bursts
system.mem_ctrls.dram.perBankWrBursts::15          191                       # Per bank write bursts
system.mem_ctrls.dram.totQLat               112862750                       # Total ticks spent queuing
system.mem_ctrls.dram.totBusLat              76025000                       # Total ticks spent in databus transfers
system.mem_ctrls.dram.totMemAccLat          397956500                       # Total ticks spent from burst creation until serviced by the DRAM
system.mem_ctrls.dram.avgQLat                 7422.74                       # Average queueing delay per DRAM burst
system.mem_ctrls.dram.avgBusLat               5000.00                       # Average bus latency per DRAM burst
system.mem_ctrls.dram.avgMemAccLat           26172.74                       # Average memory access latency per DRAM burst
system.mem_ctrls.dram.readRowHits               13219                       # Number of row buffer hits during reads
system.mem_ctrls.dram.writeRowHits               1945                       # Number of row buffer hits during writes
system.mem_ctrls.dram.readRowHitRate            86.94                       # Row buffer hit rate for reads
system.mem_ctrls.dram.writeRowHitRate           82.91                       # Row buffer hit rate for writes
system.mem_ctrls.dram.bytesPerActivate::samples         2385                       # Bytes accessed per row activation
system.mem_ctrls.dram.bytesPerActivate::mean   470.326205                       # Bytes accessed per row activation
system.mem_ctrls.dram.bytesPerActivate::gmean   304.378412                       # Bytes accessed per row activation
system.mem_ctrls.dram.bytesPerActivate::stdev   368.542954                       # Bytes accessed per row activation
system.mem_ctrls.dram.bytesPerActivate::0-127          458     19.20%     19.20% # Bytes accessed per row activation
system.mem_ctrls.dram.bytesPerActivate::128-255          495     20.75%     39.96% # Bytes accessed per row activation
system.mem_ctrls.dram.bytesPerActivate::256-383          249     10.44%     50.40% # Bytes accessed per row activation
system.mem_ctrls.dram.bytesPerActivate::384-511          174      7.30%     57.69% # Bytes accessed per row activation
system.mem_ctrls.dram.bytesPerActivate::512-639          161      6.75%     64.44% # Bytes accessed per row activation
system.mem_ctrls.dram.bytesPerActivate::640-767           72      3.02%     67.46% # Bytes accessed per row activation
system.mem_ctrls.dram.bytesPerActivate::768-895          103      4.32%     71.78% # Bytes accessed per row activation
system.mem_ctrls.dram.bytesPerActivate::896-1023          356     14.93%     86.71% # Bytes accessed per row activation
system.mem_ctrls.dram.bytesPerActivate::1024-1151          317     13.29%    100.00% # Bytes accessed per row activation
system.mem_ctrls.dram.bytesPerActivate::total         2385                       # Bytes accessed per row activation
system.mem_ctrls.dram.bytesRead                973120                       # Total number of bytes read from DRAM
system.mem_ctrls.dram.bytesWritten             150144                       # Total number of bytes written to DRAM
system.mem_ctrls.dram.avgRdBW              332.795215                       # Average DRAM read bandwidth in MiBytes/s
system.mem_ctrls.dram.avgWrBW               51.347424                       # Average DRAM write bandwidth in MiBytes/s
system.mem_ctrls.dram.peakBW                 12800.00                       # Theoretical peak bandwidth in MiByte/s
system.mem_ctrls.dram.busUtil                    3.00                       # Data bus utilization in percentage
system.mem_ctrls.dram.busUtilRead                2.60                       # Data bus utilization in percentage for reads
system.mem_ctrls.dram.busUtilWrite               0.40                       # Data bus utilization in percentage for writes
system.mem_ctrls.dram.pageHitRate               86.40                       # Row buffer hit rate, read and write combined
system.mem_ctrls.dram.power_state.pwrStateResidencyTicks::UNDEFINED   2924080500                       # Cumulative time (in ticks) in various power states
system.mem_ctrls.dram.rank0.actEnergy         8810760                       # Energy for activate commands per rank (pJ)
system.mem_ctrls.dram.rank0.preEnergy         4675440                       # Energy for precharge commands per rank (pJ)
system.mem_ctrls.dram.rank0.readEnergy       54970860                       # Energy for read commands per rank (pJ)
system.mem_ctrls.dram.rank0.writeEnergy       6243120                       # Energy for write commands per rank (pJ)
system.mem_ctrls.dram.rank0.refreshEnergy 230490000.000000                       # Energy for refresh commands per rank (pJ)
system.mem_ctrls.dram.rank0.actBackEnergy    905180520                       # Energy for active background per rank (pJ)
system.mem_ctrls.dram.rank0.preBackEnergy    360589920                       # Energy for precharge background per rank (pJ)
system.mem_ctrls.dram.rank0.actPowerDownEnergy            0                       # Energy for active power-down per rank (pJ)
system.mem_ctrls.dram.rank0.prePowerDownEnergy            0                       # Energy for precharge power-down per rank (pJ)
system.mem_ctrls.dram.rank0.selfRefreshEnergy            0                       # Energy for self refresh per rank (pJ)
system.mem_ctrls.dram.rank0.totalEnergy    1570960620                       # Total energy per rank (pJ)
system.mem_ctrls.dram.rank0.averagePower   537.249443                       # Core power per rank (mW)
system.mem_ctrls.dram.rank0.totalIdleTime            0                       # Total Idle time Per DRAM Rank
system.mem_ctrls.dram.rank0.pwrStateTime::IDLE    928778750                       # Time in different power states
system.mem_ctrls.dram.rank0.pwrStateTime::REF     97500000                       # Time in different power states
system.mem_ctrls.dram.rank0.pwrStateTime::SREF            0                       # Time in different power states
system.mem_ctrls.dram.rank0.pwrStateTime::PRE_PDN            0                       # Time in different power states
system.mem_ctrls.dram.rank0.pwrStateTime::ACT   1897801750                       # Time in different power states
system.mem_ctrls.dram.rank0.pwrStateTime::ACT_PDN            0                       # Time in different power states
system.mem_ctrls.dram.rank1.actEnergy         8232420                       # Energy for activate commands per rank (pJ)
system.mem_ctrls.dram.rank1.preEnergy         4375635                       # Energy for precharge commands per rank (pJ)
system.mem_ctrls.dram.rank1.readEnergy       53592840                       # Energy for read commands per rank (pJ)
system.mem_ctrls.dram.rank1.writeEnergy       6003000                       # Energy for write commands per rank (pJ)
system.mem_ctrls.dram.rank1.refreshEnergy 230490000.000000                       # Energy for refresh commands per rank (pJ)
system.mem_ctrls.dram.rank1.actBackEnergy    943090650                       # Energy for active background per rank (pJ)
system.mem_ctrls.dram.rank1.preBackEnergy    328665600                       # Energy for precharge background per rank (pJ)
system.mem_ctrls.dram.rank1.actPowerDownEnergy            0                       # Energy for active power-down per rank (pJ)
system.mem_ctrls.dram.rank1.prePowerDownEnergy            0                       # Energy for precharge power-down per rank (pJ)
system.mem_ctrls.dram.rank1.selfRefreshEnergy            0                       # Energy for self refresh per rank (pJ)
system.mem_ctrls.dram.rank1.totalEnergy    1574450145                       # Total energy per rank (pJ)
system.mem_ctrls.dram.rank1.averagePower   538.442818                       # Core power per rank (mW)
system.mem_ctrls.dram.rank1.totalIdleTime            0                       # Total Idle time Per DRAM Rank
system.mem_ctrls.dram.rank1.pwrStateTime::IDLE    845702000                       # Time in different power states
system.mem_ctrls.dram.rank1.pwrStateTime::REF     97500000                       # Time in different power states
system.mem_ctrls.dram.rank1.pwrStateTime::SREF            0                       # Time in different power states
system.mem_ctrls.dram.rank1.pwrStateTime::PRE_PDN            0                       # Time in different power states
system.mem_ctrls.dram.rank1.pwrStateTime::ACT   1980878500                       # Time in different power states
system.mem_ctrls.dram.rank1.pwrStateTime::ACT_PDN            0                       # Time in different power states
system.mem_ctrls.power_state.pwrStateResidencyTicks::UNDEFINED   2924080500                       # Cumulative time (in ticks) in various power states
system.membus.trans_dist::ReadResp               4759                       # Transaction distribution
system.membus.trans_dist::WritebackDirty         2376                       # Transaction distribution
system.membus.trans_dist::CleanEvict             4133                       # Transaction distribution
system.membus.trans_dist::ReadExReq             10452                       # Transaction distribution
system.membus.trans_dist::ReadExResp            10452                       # Transaction distribution
system.membus.trans_dist::ReadSharedReq          4759                       # Transaction distribution
system.membus.pkt_count_system.l2.mem_side_port::system.mem_ctrls.port        36931                       # Packet count per connected requestor and responder (bytes)
system.membus.pkt_count_system.l2.mem_side_port::total        36931                       # Packet count per connected requestor and responder (bytes)
system.membus.pkt_count::total                  36931                       # Packet count per connected requestor and responder (bytes)
system.membus.pkt_size_system.l2.mem_side_port::system.mem_ctrls.port      1125568                       # Cumulative packet size per connected requestor and responder (bytes)
system.membus.pkt_size_system.l2.mem_side_port::total      1125568                       # Cumulative packet size per connected requestor and responder (bytes)
system.membus.pkt_size::total                 1125568                       # Cumulative packet size per connected requestor and responder (bytes)
system.membus.snoops                                0                       # Total snoops (count)
system.membus.snoopTraffic                          0                       # Total snoop traffic (bytes)
system.membus.snoop_fanout::samples             15211                       # Request fanout histogram
system.membus.snoop_fanout::mean                    0                       # Request fanout histogram
system.membus.snoop_fanout::stdev                   0                       # Request fanout histogram
system.membus.snoop_fanout::underflows              0      0.00%      0.00% # Request fanout histogram
system.membus.snoop_fanout::0                   15211    100.00%    100.00% # Request fanout histogram
system.membus.snoop_fanout::1                       0      0.00%    100.00% # Request fanout histogram
system.membus.snoop_fanout::overflows               0      0.00%    100.00% # Request fanout histogram
system.membus.snoop_fanout::min_value               0                       # Request fanout histogram
system.membus.snoop_fanout::max_value               0                       # Request fanout histogram
system.membus.snoop_fanout::total               15211                       # Request fanout histogram
system.membus.power_state.pwrStateResidencyTicks::UNDEFINED   2924080500                       # Cumulative time (in ticks) in various power states
system.membus.reqLayer2.occupancy             7806000                       # Layer occupancy (ticks)
system.membus.reqLayer2.utilization               0.3                       # Layer utilization (%)
system.membus.respLayer1.occupancy           19013750                       # Layer occupancy (ticks)
system.membus.respLayer1.utilization              0.7                       # Layer utilization (%)
system.tol2bus.trans_dist::ReadResp              6696                       # Transaction distribution
system.tol2bus.trans_dist::WritebackDirty        13389                       # Transaction distribution
system.tol2bus.trans_dist::WritebackClean         2183                       # Transaction distribution
system.tol2bus.trans_dist::CleanEvict            7826                       # Transaction distribution
system.tol2bus.trans_dist::ReadExReq            10704                       # Transaction distribution
system.tol2bus.trans_dist::ReadExResp           10704                       # Transaction distribution
system.tol2bus.trans_dist::ReadCleanReq          2694                       # Transaction distribution
system.tol2bus.trans_dist::ReadSharedReq         4002                       # Transaction distribution
system.tol2bus.pkt_count_system.cpu.icache.mem_side_port::system.l2.cpu_side_port         7569                       # Packet count per connected requestor and responder (bytes)
system.tol2bus.pkt_count_system.cpu.dcache.mem_side_port::system.l2.cpu_side_port        43606                       # Packet count per connected requestor and responder (bytes)
system.tol2bus.pkt_count::total                 51175                       # Packet count per connected requestor and responder (bytes)
system.tol2bus.pkt_size_system.cpu.icache.mem_side_port::system.l2.cpu_side_port       312000                       # Cumulative packet size per connected requestor and responder (bytes)
system.tol2bus.pkt_size_system.cpu.dcache.mem_side_port::system.l2.cpu_side_port      1646016                       # Cumulative packet size per connected requestor and responder (bytes)
system.tol2bus.pkt_size::total                1958016                       # Cumulative packet size per connected requestor and responder (bytes)
system.tol2bus.snoops                            7023                       # Total snoops (count)
system.tol2bus.snoopTraffic                    152192                       # Total snoop traffic (bytes)
system.tol2bus.snoop_fanout::samples            24421                       # Request fanout histogram
system.tol2bus.snoop_fanout::mean            0.021375                       # Request fanout histogram
system.tol2bus.snoop_fanout::stdev           0.144634                       # Request fanout histogram
system.tol2bus.snoop_fanout::underflows             0      0.00%      0.00% # Request fanout histogram
system.tol2bus.snoop_fanout::0                  23899     97.86%     97.86% # Request fanout histogram
system.tol2bus.snoop_fanout::1                    522      2.14%    100.00% # Request fanout histogram
system.tol2bus.snoop_fanout::2                      0      0.00%    100.00% # Request fanout histogram
system.tol2bus.snoop_fanout::3                      0      0.00%    100.00% # Request fanout histogram
system.tol2bus.snoop_fanout::4                      0      0.00%    100.00% # Request fanout histogram
system.tol2bus.snoop_fanout::overflows              0      0.00%    100.00% # Request fanout histogram
system.tol2bus.snoop_fanout::min_value              0                       # Request fanout histogram
system.tol2bus.snoop_fanout::max_value              1                       # Request fanout histogram
system.tol2bus.snoop_fanout::total              24421                       # Request fanout histogram
system.tol2bus.power_state.pwrStateResidencyTicks::UNDEFINED   2924080500                       # Cumulative time (in ticks) in various power states
system.tol2bus.reqLayer0.occupancy           30084500                       # Layer occupancy (ticks)
system.tol2bus.reqLayer0.utilization              1.0                       # Layer utilization (%)
system.tol2bus.respLayer0.occupancy           4041998                       # Layer occupancy (ticks)
system.tol2bus.respLayer0.utilization             0.1                       # Layer utilization (%)
system.tol2bus.respLayer1.occupancy          22059000                       # Layer occupancy (ticks)
system.tol2bus.respLayer1.utilization             0.8                       # Layer utilization (%)
system.voltage_domain.voltage                       1                       # Voltage in Volts

---------- End Simulation Statistics   ----------
