
---------- Begin Simulation Statistics ----------
final_tick                                41286765500                       # Number of ticks from beginning of simulation (restored from checkpoints and never reset)
host_inst_rate                                  75613                       # Simulator instruction rate (inst/s)
host_mem_usage                                 675124                       # Number of bytes of host memory used
host_op_rate                                   142437                       # Simulator op (including micro ops) rate (op/s)
host_seconds                                  1322.53                       # Real time elapsed on the host
host_tick_rate                               31218058                       # Simulator tick rate (ticks/s)
sim_freq                                 1000000000000                       # Frequency of simulated ticks
sim_insts                                   100000001                       # Number of instructions simulated
sim_ops                                     188377356                       # Number of ops (including micro ops) simulated
sim_seconds                                  0.041287                       # Number of seconds simulated
sim_ticks                                 41286765500                       # Number of ticks simulated
system.cpu.cc_regfile_reads                 119910352                       # number of cc regfile reads
system.cpu.cc_regfile_writes                 58024997                       # number of cc regfile writes
system.cpu.committedInsts                   100000001                       # Number of Instructions Simulated
system.cpu.committedOps                     188377356                       # Number of Ops (including micro ops) Simulated
system.cpu.cpi                               0.825735                       # CPI: Cycles Per Instruction
system.cpu.cpi_total                         0.825735                       # CPI: Total CPI of All Threads
system.cpu.fp_regfile_reads                   5494007                       # number of floating regfile reads
system.cpu.fp_regfile_writes                  3097307                       # number of floating regfile writes
system.cpu.idleCycles                           89202                       # Total number of cycles that the CPU has spent unscheduled due to idling
system.cpu.iew.branchMispredicts               478112                       # Number of branch mispredicts detected at execute
system.cpu.iew.exec_branches                 22136278                       # Number of branches executed
system.cpu.iew.exec_nop                             0                       # number of nop insts executed
system.cpu.iew.exec_rate                     2.371889                       # Inst execution rate
system.cpu.iew.exec_refs                     39465129                       # number of memory reference insts executed
system.cpu.iew.exec_stores                   15936179                       # Number of stores executed
system.cpu.iew.exec_swp                             0                       # number of swp insts executed
system.cpu.iew.iewBlockCycles                 5296782                       # Number of cycles IEW is blocking
system.cpu.iew.iewDispLoadInsts              23855875                       # Number of dispatched load instructions
system.cpu.iew.iewDispNonSpecInsts                 64                       # Number of dispatched non-speculative instructions
system.cpu.iew.iewDispSquashedInsts              7047                       # Number of squashed instructions skipped by dispatch
system.cpu.iew.iewDispStoreInsts             16305225                       # Number of dispatched store instructions
system.cpu.iew.iewDispatchedInsts           200874292                       # Number of instructions dispatched to IQ
system.cpu.iew.iewExecLoadInsts              23528950                       # Number of load instructions executed
system.cpu.iew.iewExecSquashedInsts           1029401                       # Number of squashed instructions skipped in execute
system.cpu.iew.iewExecutedInsts             195855241                       # Number of executed instructions
system.cpu.iew.iewIQFullEvents                  36908                       # Number of times the IQ has become full, causing a stall
system.cpu.iew.iewIdleCycles                        0                       # Number of cycles IEW is idle
system.cpu.iew.iewLSQFullEvents               3409964                       # Number of times the LSQ has become full, causing a stall
system.cpu.iew.iewSquashCycles                 387238                       # Number of cycles IEW is squashing
system.cpu.iew.iewUnblockCycles               3487127                       # Number of cycles IEW is unblocking
system.cpu.iew.memOrderViolationEvents           1213                       # Number of memory order violations
system.cpu.iew.predictedNotTakenIncorrect       363886                       # Number of branches that were predicted not taken incorrectly
system.cpu.iew.predictedTakenIncorrect         114226                       # Number of branches that were predicted taken incorrectly
system.cpu.iew.wb_consumers                 219490900                       # num instructions consuming a value
system.cpu.iew.wb_count                     195441603                       # cumulative count of insts written-back
system.cpu.iew.wb_fanout                     0.619940                       # average fanout of values written-back
system.cpu.iew.wb_producers                 136071233                       # num instructions producing a value
system.cpu.iew.wb_rate                       2.366880                       # insts written-back per cycle
system.cpu.iew.wb_sent                      195623709                       # cumulative count of insts sent to commit
system.cpu.int_regfile_reads                299121810                       # number of integer regfile reads
system.cpu.int_regfile_writes               155377264                       # number of integer regfile writes
system.cpu.ipc                               1.211042                       # IPC: Instructions Per Cycle
system.cpu.ipc_total                         1.211042                       # IPC: Total IPC of All Threads
system.cpu.iq.FU_type_0::No_OpClass           1762336      0.90%      0.90% # Type of FU issued
system.cpu.iq.FU_type_0::IntAlu             151373886     76.88%     77.78% # Type of FU issued
system.cpu.iq.FU_type_0::IntMult               764112      0.39%     78.17% # Type of FU issued
system.cpu.iq.FU_type_0::IntDiv                854110      0.43%     78.60% # Type of FU issued
system.cpu.iq.FU_type_0::FloatAdd              477013      0.24%     78.84% # Type of FU issued
system.cpu.iq.FU_type_0::FloatCmp                   0      0.00%     78.84% # Type of FU issued
system.cpu.iq.FU_type_0::FloatCvt                  32      0.00%     78.84% # Type of FU issued
system.cpu.iq.FU_type_0::FloatMult                  0      0.00%     78.84% # Type of FU issued
system.cpu.iq.FU_type_0::FloatMultAcc               0      0.00%     78.84% # Type of FU issued
system.cpu.iq.FU_type_0::FloatDiv                   0      0.00%     78.84% # Type of FU issued
system.cpu.iq.FU_type_0::FloatMisc                  0      0.00%     78.84% # Type of FU issued
system.cpu.iq.FU_type_0::FloatSqrt                  0      0.00%     78.84% # Type of FU issued
system.cpu.iq.FU_type_0::SimdAdd                  450      0.00%     78.84% # Type of FU issued
system.cpu.iq.FU_type_0::SimdAddAcc                 0      0.00%     78.84% # Type of FU issued
system.cpu.iq.FU_type_0::SimdAlu               193740      0.10%     78.94% # Type of FU issued
system.cpu.iq.FU_type_0::SimdCmp                   20      0.00%     78.94% # Type of FU issued
system.cpu.iq.FU_type_0::SimdCvt               382726      0.19%     79.14% # Type of FU issued
system.cpu.iq.FU_type_0::SimdMisc             1249200      0.63%     79.77% # Type of FU issued
system.cpu.iq.FU_type_0::SimdMult                   0      0.00%     79.77% # Type of FU issued
system.cpu.iq.FU_type_0::SimdMultAcc                0      0.00%     79.77% # Type of FU issued
system.cpu.iq.FU_type_0::SimdShift                320      0.00%     79.77% # Type of FU issued
system.cpu.iq.FU_type_0::SimdShiftAcc               0      0.00%     79.77% # Type of FU issued
system.cpu.iq.FU_type_0::SimdDiv                    0      0.00%     79.77% # Type of FU issued
system.cpu.iq.FU_type_0::SimdSqrt                   0      0.00%     79.77% # Type of FU issued
system.cpu.iq.FU_type_0::SimdFloatAdd               0      0.00%     79.77% # Type of FU issued
system.cpu.iq.FU_type_0::SimdFloatAlu               0      0.00%     79.77% # Type of FU issued
system.cpu.iq.FU_type_0::SimdFloatCmp               0      0.00%     79.77% # Type of FU issued
system.cpu.iq.FU_type_0::SimdFloatCvt               4      0.00%     79.77% # Type of FU issued
system.cpu.iq.FU_type_0::SimdFloatDiv               0      0.00%     79.77% # Type of FU issued
system.cpu.iq.FU_type_0::SimdFloatMisc              0      0.00%     79.77% # Type of FU issued
system.cpu.iq.FU_type_0::SimdFloatMult              2      0.00%     79.77% # Type of FU issued
system.cpu.iq.FU_type_0::SimdFloatMultAcc            0      0.00%     79.77% # Type of FU issued
system.cpu.iq.FU_type_0::SimdFloatSqrt              0      0.00%     79.77% # Type of FU issued
system.cpu.iq.FU_type_0::SimdReduceAdd              0      0.00%     79.77% # Type of FU issued
system.cpu.iq.FU_type_0::SimdReduceAlu              0      0.00%     79.77% # Type of FU issued
system.cpu.iq.FU_type_0::SimdReduceCmp              0      0.00%     79.77% # Type of FU issued
system.cpu.iq.FU_type_0::SimdFloatReduceAdd            0      0.00%     79.77% # Type of FU issued
system.cpu.iq.FU_type_0::SimdFloatReduceCmp            0      0.00%     79.77% # Type of FU issued
system.cpu.iq.FU_type_0::SimdAes                    0      0.00%     79.77% # Type of FU issued
system.cpu.iq.FU_type_0::SimdAesMix                 0      0.00%     79.77% # Type of FU issued
system.cpu.iq.FU_type_0::SimdSha1Hash               0      0.00%     79.77% # Type of FU issued
system.cpu.iq.FU_type_0::SimdSha1Hash2              0      0.00%     79.77% # Type of FU issued
system.cpu.iq.FU_type_0::SimdSha256Hash             0      0.00%     79.77% # Type of FU issued
system.cpu.iq.FU_type_0::SimdSha256Hash2            0      0.00%     79.77% # Type of FU issued
system.cpu.iq.FU_type_0::SimdShaSigma2              0      0.00%     79.77% # Type of FU issued
system.cpu.iq.FU_type_0::SimdShaSigma3              0      0.00%     79.77% # Type of FU issued
system.cpu.iq.FU_type_0::SimdPredAlu                0      0.00%     79.77% # Type of FU issued
system.cpu.iq.FU_type_0::MemRead             22737144     11.55%     91.32% # Type of FU issued
system.cpu.iq.FU_type_0::MemWrite            14462905      7.35%     98.67% # Type of FU issued
system.cpu.iq.FU_type_0::FloatMemRead         1015952      0.52%     99.18% # Type of FU issued
system.cpu.iq.FU_type_0::FloatMemWrite        1610695      0.82%    100.00% # Type of FU issued
system.cpu.iq.FU_type_0::IprAccess                  0      0.00%    100.00% # Type of FU issued
system.cpu.iq.FU_type_0::InstPrefetch               0      0.00%    100.00% # Type of FU issued
system.cpu.iq.FU_type_0::total              196884647                       # Type of FU issued
system.cpu.iq.fp_alu_accesses                 5375843                       # Number of floating point alu accesses
system.cpu.iq.fp_inst_queue_reads            10593858                       # Number of floating instruction queue reads
system.cpu.iq.fp_inst_queue_wakeup_accesses      5009568                       # Number of floating instruction queue wakeup accesses
system.cpu.iq.fp_inst_queue_writes            6515456                       # Number of floating instruction queue writes
system.cpu.iq.fu_busy_cnt                     2889233                       # FU busy when requested
system.cpu.iq.fu_busy_rate                   0.014675                       # FU busy rate (busy events/executed inst)
system.cpu.iq.fu_full::No_OpClass                   0      0.00%      0.00% # attempts to use FU when none available
system.cpu.iq.fu_full::IntAlu                 2415715     83.61%     83.61% # attempts to use FU when none available
system.cpu.iq.fu_full::IntMult                      0      0.00%     83.61% # attempts to use FU when none available
system.cpu.iq.fu_full::IntDiv                       0      0.00%     83.61% # attempts to use FU when none available
system.cpu.iq.fu_full::FloatAdd                     0      0.00%     83.61% # attempts to use FU when none available
system.cpu.iq.fu_full::FloatCmp                     0      0.00%     83.61% # attempts to use FU when none available
system.cpu.iq.fu_full::FloatCvt                     0      0.00%     83.61% # attempts to use FU when none available
system.cpu.iq.fu_full::FloatMult                    0      0.00%     83.61% # attempts to use FU when none available
system.cpu.iq.fu_full::FloatMultAcc                 0      0.00%     83.61% # attempts to use FU when none available
system.cpu.iq.fu_full::FloatDiv                     0      0.00%     83.61% # attempts to use FU when none available
system.cpu.iq.fu_full::FloatMisc                    0      0.00%     83.61% # attempts to use FU when none available
system.cpu.iq.fu_full::FloatSqrt                    0      0.00%     83.61% # attempts to use FU when none available
system.cpu.iq.fu_full::SimdAdd                      0      0.00%     83.61% # attempts to use FU when none available
system.cpu.iq.fu_full::SimdAddAcc                   0      0.00%     83.61% # attempts to use FU when none available
system.cpu.iq.fu_full::SimdAlu                     15      0.00%     83.61% # attempts to use FU when none available
system.cpu.iq.fu_full::SimdCmp                      2      0.00%     83.61% # attempts to use FU when none available
system.cpu.iq.fu_full::SimdCvt                  12977      0.45%     84.06% # attempts to use FU when none available
system.cpu.iq.fu_full::SimdMisc                   765      0.03%     84.09% # attempts to use FU when none available
system.cpu.iq.fu_full::SimdMult                     0      0.00%     84.09% # attempts to use FU when none available
system.cpu.iq.fu_full::SimdMultAcc                  0      0.00%     84.09% # attempts to use FU when none available
system.cpu.iq.fu_full::SimdShift                    1      0.00%     84.09% # attempts to use FU when none available
system.cpu.iq.fu_full::SimdShiftAcc                 0      0.00%     84.09% # attempts to use FU when none available
system.cpu.iq.fu_full::SimdDiv                      0      0.00%     84.09% # attempts to use FU when none available
system.cpu.iq.fu_full::SimdSqrt                     0      0.00%     84.09% # attempts to use FU when none available
system.cpu.iq.fu_full::SimdFloatAdd                 0      0.00%     84.09% # attempts to use FU when none available
system.cpu.iq.fu_full::SimdFloatAlu                 0      0.00%     84.09% # attempts to use FU when none available
system.cpu.iq.fu_full::SimdFloatCmp                 0      0.00%     84.09% # attempts to use FU when none available
system.cpu.iq.fu_full::SimdFloatCvt                 0      0.00%     84.09% # attempts to use FU when none available
system.cpu.iq.fu_full::SimdFloatDiv                 0      0.00%     84.09% # attempts to use FU when none available
system.cpu.iq.fu_full::SimdFloatMisc                0      0.00%     84.09% # attempts to use FU when none available
system.cpu.iq.fu_full::SimdFloatMult                0      0.00%     84.09% # attempts to use FU when none available
system.cpu.iq.fu_full::SimdFloatMultAcc             0      0.00%     84.09% # attempts to use FU when none available
system.cpu.iq.fu_full::SimdFloatSqrt                0      0.00%     84.09% # attempts to use FU when none available
system.cpu.iq.fu_full::SimdReduceAdd                0      0.00%     84.09% # attempts to use FU when none available
system.cpu.iq.fu_full::SimdReduceAlu                0      0.00%     84.09% # attempts to use FU when none available
system.cpu.iq.fu_full::SimdReduceCmp                0      0.00%     84.09% # attempts to use FU when none available
system.cpu.iq.fu_full::SimdFloatReduceAdd            0      0.00%     84.09% # attempts to use FU when none available
system.cpu.iq.fu_full::SimdFloatReduceCmp            0      0.00%     84.09% # attempts to use FU when none available
system.cpu.iq.fu_full::SimdAes                      0      0.00%     84.09% # attempts to use FU when none available
system.cpu.iq.fu_full::SimdAesMix                   0      0.00%     84.09% # attempts to use FU when none available
system.cpu.iq.fu_full::SimdSha1Hash                 0      0.00%     84.09% # attempts to use FU when none available
system.cpu.iq.fu_full::SimdSha1Hash2                0      0.00%     84.09% # attempts to use FU when none available
system.cpu.iq.fu_full::SimdSha256Hash               0      0.00%     84.09% # attempts to use FU when none available
system.cpu.iq.fu_full::SimdSha256Hash2              0      0.00%     84.09% # attempts to use FU when none available
system.cpu.iq.fu_full::SimdShaSigma2                0      0.00%     84.09% # attempts to use FU when none available
system.cpu.iq.fu_full::SimdShaSigma3                0      0.00%     84.09% # attempts to use FU when none available
system.cpu.iq.fu_full::SimdPredAlu                  0      0.00%     84.09% # attempts to use FU when none available
system.cpu.iq.fu_full::MemRead                 215268      7.45%     91.54% # attempts to use FU when none available
system.cpu.iq.fu_full::MemWrite                101964      3.53%     95.07% # attempts to use FU when none available
system.cpu.iq.fu_full::FloatMemRead             19328      0.67%     95.74% # attempts to use FU when none available
system.cpu.iq.fu_full::FloatMemWrite           123198      4.26%    100.00% # attempts to use FU when none available
system.cpu.iq.fu_full::IprAccess                    0      0.00%    100.00% # attempts to use FU when none available
system.cpu.iq.fu_full::InstPrefetch                 0      0.00%    100.00% # attempts to use FU when none available
system.cpu.iq.int_alu_accesses              192635701                       # Number of integer alu accesses
system.cpu.iq.int_inst_queue_reads          468632068                       # Number of integer instruction queue reads
system.cpu.iq.int_inst_queue_wakeup_accesses    190432035                       # Number of integer instruction queue wakeup accesses
system.cpu.iq.int_inst_queue_writes         206856940                       # Number of integer instruction queue writes
system.cpu.iq.iqInstsAdded                  200874140                       # Number of instructions added to the IQ (excludes non-spec)
system.cpu.iq.iqInstsIssued                 196884647                       # Number of instructions issued
system.cpu.iq.iqNonSpecInstsAdded                 152                       # Number of non-speculative instructions added to the IQ
system.cpu.iq.iqSquashedInstsExamined        12496901                       # Number of squashed instructions iterated over during squash; mainly for profiling
system.cpu.iq.iqSquashedInstsIssued             83074                       # Number of squashed instructions issued
system.cpu.iq.iqSquashedNonSpecRemoved             86                       # Number of squashed non-spec instructions that were removed
system.cpu.iq.iqSquashedOperandsExamined     19008637                       # Number of squashed operands that are examined and possibly removed from graph
system.cpu.iq.issued_per_cycle::samples      82484330                       # Number of insts issued each cycle
system.cpu.iq.issued_per_cycle::mean         2.386934                       # Number of insts issued each cycle
system.cpu.iq.issued_per_cycle::stdev        2.461323                       # Number of insts issued each cycle
system.cpu.iq.issued_per_cycle::underflows            0      0.00%      0.00% # Number of insts issued each cycle
system.cpu.iq.issued_per_cycle::0            31652953     38.37%     38.37% # Number of insts issued each cycle
system.cpu.iq.issued_per_cycle::1             6972361      8.45%     46.83% # Number of insts issued each cycle
system.cpu.iq.issued_per_cycle::2             8195659      9.94%     56.76% # Number of insts issued each cycle
system.cpu.iq.issued_per_cycle::3             9044490     10.97%     67.73% # Number of insts issued each cycle
system.cpu.iq.issued_per_cycle::4             7826356      9.49%     77.22% # Number of insts issued each cycle
system.cpu.iq.issued_per_cycle::5             5962404      7.23%     84.45% # Number of insts issued each cycle
system.cpu.iq.issued_per_cycle::6             6823933      8.27%     92.72% # Number of insts issued each cycle
system.cpu.iq.issued_per_cycle::7             3722936      4.51%     97.23% # Number of insts issued each cycle
system.cpu.iq.issued_per_cycle::8             2283238      2.77%    100.00% # Number of insts issued each cycle
system.cpu.iq.issued_per_cycle::overflows            0      0.00%    100.00% # Number of insts issued each cycle
system.cpu.iq.issued_per_cycle::min_value            0                       # Number of insts issued each cycle
system.cpu.iq.issued_per_cycle::max_value            8                       # Number of insts issued each cycle
system.cpu.iq.issued_per_cycle::total        82484330                       # Number of insts issued each cycle
system.cpu.iq.rate                           2.384355                       # Inst issue rate
system.cpu.iq.vec_alu_accesses                      0                       # Number of vector alu accesses
system.cpu.iq.vec_inst_queue_reads                  0                       # Number of vector instruction queue reads
system.cpu.iq.vec_inst_queue_wakeup_accesses            0                       # Number of vector instruction queue wakeup accesses
system.cpu.iq.vec_inst_queue_writes                 0                       # Number of vector instruction queue writes
system.cpu.memDep0.conflictingLoads            669282                       # Number of conflicting loads.
system.cpu.memDep0.conflictingStores           165818                       # Number of conflicting stores.
system.cpu.memDep0.insertedLoads             23855875                       # Number of loads inserted to the mem dependence unit.
system.cpu.memDep0.insertedStores            16305225                       # Number of stores inserted to the mem dependence unit.
system.cpu.misc_regfile_reads                83498077                       # number of misc regfile reads
system.cpu.misc_regfile_writes                     18                       # number of misc regfile writes
system.cpu.numCycles                         82573532                       # number of cpu cycles simulated
system.cpu.numWorkItemsCompleted                    0                       # number of work items this cpu completed
system.cpu.numWorkItemsStarted                      0                       # number of work items this cpu started
system.cpu.timesIdled                            1210                       # Number of times that the entire CPU went into an idle state and unscheduled itself
system.cpu.workload.numSyscalls                   128                       # Number of system calls
system.membus.snoop_filter.hit_multi_requests            0                       # Number of requests hitting in the snoop filter with multiple (>1) holders of the requested data.
system.membus.snoop_filter.hit_multi_snoops            0                       # Number of snoops hitting in the snoop filter with multiple (>1) holders of the requested data.
system.membus.snoop_filter.hit_single_requests       201797                       # Number of requests hitting in the snoop filter with a single holder of the requested data.
system.membus.snoop_filter.hit_single_snoops            0                       # Number of snoops hitting in the snoop filter with a single holder of the requested data.
system.membus.snoop_filter.tot_requests        412292                       # Total number of requests made to the snoop filter.
system.membus.snoop_filter.tot_snoops               0                       # Total number of snoops made to the snoop filter.
system.tol2bus.snoop_filter.hit_multi_requests          115                       # Number of requests hitting in the snoop filter with multiple (>1) holders of the requested data.
system.tol2bus.snoop_filter.hit_multi_snoops           21                       # Number of snoops hitting in the snoop filter with multiple (>1) holders of the requested data.
system.tol2bus.snoop_filter.hit_single_requests       403575                       # Number of requests hitting in the snoop filter with a single holder of the requested data.
system.tol2bus.snoop_filter.hit_single_snoops          861                       # Number of snoops hitting in the snoop filter with a single holder of the requested data.
system.tol2bus.snoop_filter.tot_requests       808170                       # Total number of requests made to the snoop filter.
system.tol2bus.snoop_filter.tot_snoops            882                       # Total number of snoops made to the snoop filter.
system.clk_domain.clock                           250                       # Clock period in ticks
system.cpu.branchPred.lookups                23932846                       # Number of BP lookups
system.cpu.branchPred.condPredicted          19652517                       # Number of conditional branches predicted
system.cpu.branchPred.condIncorrect            479344                       # Number of conditional branches incorrect
system.cpu.branchPred.BTBLookups             10168016                       # Number of BTB lookups
system.cpu.branchPred.BTBHits                 9505235                       # Number of BTB hits
system.cpu.branchPred.BTBHitPct             93.481708                       # BTB Hit Percentage
system.cpu.branchPred.RASUsed                 1130738                       # Number of times the RAS was used to get a target.
system.cpu.branchPred.RASIncorrect                 11                       # Number of incorrect RAS predictions.
system.cpu.branchPred.indirectLookups          516635                       # Number of indirect predictor lookups.
system.cpu.branchPred.indirectHits             502856                       # Number of indirect target hits.
system.cpu.branchPred.indirectMisses            13779                       # Number of indirect misses.
system.cpu.branchPred.indirectMispredicted          473                       # Number of mispredicted indirect branches.
system.cpu.commit.commitSquashedInsts        12455804                       # The number of squashed insts skipped by commit
system.cpu.commit.commitNonSpecStalls              66                       # The number of times commit has been forced to stall to communicate backwards
system.cpu.commit.branchMispredicts            382810                       # The number of times a branch was mispredicted
system.cpu.commit.numCommittedDist::samples     80706952                       # Number of insts commited each cycle
system.cpu.commit.numCommittedDist::mean     2.334091                       # Number of insts commited each cycle
system.cpu.commit.numCommittedDist::stdev     2.814188                       # Number of insts commited each cycle
system.cpu.commit.numCommittedDist::underflows            0      0.00%      0.00% # Number of insts commited each cycle
system.cpu.commit.numCommittedDist::0        34552071     42.81%     42.81% # Number of insts commited each cycle
system.cpu.commit.numCommittedDist::1        10276563     12.73%     55.54% # Number of insts commited each cycle
system.cpu.commit.numCommittedDist::2         5292356      6.56%     62.10% # Number of insts commited each cycle
system.cpu.commit.numCommittedDist::3         9372250     11.61%     73.72% # Number of insts commited each cycle
system.cpu.commit.numCommittedDist::4         2529741      3.13%     76.85% # Number of insts commited each cycle
system.cpu.commit.numCommittedDist::5         3826458      4.74%     81.59% # Number of insts commited each cycle
system.cpu.commit.numCommittedDist::6         3363618      4.17%     85.76% # Number of insts commited each cycle
system.cpu.commit.numCommittedDist::7         1984791      2.46%     88.22% # Number of insts commited each cycle
system.cpu.commit.numCommittedDist::8         9509104     11.78%    100.00% # Number of insts commited each cycle
system.cpu.commit.numCommittedDist::overflows            0      0.00%    100.00% # Number of insts commited each cycle
system.cpu.commit.numCommittedDist::min_value            0                       # Number of insts commited each cycle
system.cpu.commit.numCommittedDist::max_value            8                       # Number of insts commited each cycle
system.cpu.commit.numCommittedDist::total     80706952                       # Number of insts commited each cycle
system.cpu.commit.instsCommitted            100000001                       # Number of instructions committed
system.cpu.commit.opsCommitted              188377356                       # Number of ops (including micro ops) committed
system.cpu.commit.memRefs                    38036846                       # Number of memory references committed
system.cpu.commit.loads                      22459262                       # Number of loads committed
system.cpu.commit.amos                              0                       # Number of atomic instructions committed
system.cpu.commit.membars                          32                       # Number of memory barriers committed
system.cpu.commit.branches                   21544942                       # Number of branches committed
system.cpu.commit.vector                            0                       # Number of committed Vector instructions.
system.cpu.commit.floating                    4463062                       # Number of committed floating point instructions.
system.cpu.commit.integer                   184964991                       # Number of committed integer instructions.
system.cpu.commit.functionCalls                984766                       # Number of function calls committed.
system.cpu.commit.committedInstType_0::No_OpClass      1710424      0.91%      0.91% # Class of committed instruction
system.cpu.commit.committedInstType_0::IntAlu    145124422     77.04%     77.95% # Class of committed instruction
system.cpu.commit.committedInstType_0::IntMult       740405      0.39%     78.34% # Class of committed instruction
system.cpu.commit.committedInstType_0::IntDiv       795782      0.42%     78.76% # Class of committed instruction
system.cpu.commit.committedInstType_0::FloatAdd       476249      0.25%     79.02% # Class of committed instruction
system.cpu.commit.committedInstType_0::FloatCmp            0      0.00%     79.02% # Class of committed instruction
system.cpu.commit.committedInstType_0::FloatCvt           32      0.00%     79.02% # Class of committed instruction
system.cpu.commit.committedInstType_0::FloatMult            0      0.00%     79.02% # Class of committed instruction
system.cpu.commit.committedInstType_0::FloatMultAcc            0      0.00%     79.02% # Class of committed instruction
system.cpu.commit.committedInstType_0::FloatDiv            0      0.00%     79.02% # Class of committed instruction
system.cpu.commit.committedInstType_0::FloatMisc            0      0.00%     79.02% # Class of committed instruction
system.cpu.commit.committedInstType_0::FloatSqrt            0      0.00%     79.02% # Class of committed instruction
system.cpu.commit.committedInstType_0::SimdAdd          398      0.00%     79.02% # Class of committed instruction
system.cpu.commit.committedInstType_0::SimdAddAcc            0      0.00%     79.02% # Class of committed instruction
system.cpu.commit.committedInstType_0::SimdAlu        96914      0.05%     79.07% # Class of committed instruction
system.cpu.commit.committedInstType_0::SimdCmp           20      0.00%     79.07% # Class of committed instruction
system.cpu.commit.committedInstType_0::SimdCvt       255066      0.14%     79.20% # Class of committed instruction
system.cpu.commit.committedInstType_0::SimdMisc      1140687      0.61%     79.81% # Class of committed instruction
system.cpu.commit.committedInstType_0::SimdMult            0      0.00%     79.81% # Class of committed instruction
system.cpu.commit.committedInstType_0::SimdMultAcc            0      0.00%     79.81% # Class of committed instruction
system.cpu.commit.committedInstType_0::SimdShift          105      0.00%     79.81% # Class of committed instruction
system.cpu.commit.committedInstType_0::SimdShiftAcc            0      0.00%     79.81% # Class of committed instruction
system.cpu.commit.committedInstType_0::SimdDiv            0      0.00%     79.81% # Class of committed instruction
system.cpu.commit.committedInstType_0::SimdSqrt            0      0.00%     79.81% # Class of committed instruction
system.cpu.commit.committedInstType_0::SimdFloatAdd            0      0.00%     79.81% # Class of committed instruction
system.cpu.commit.committedInstType_0::SimdFloatAlu            0      0.00%     79.81% # Class of committed instruction
system.cpu.commit.committedInstType_0::SimdFloatCmp            0      0.00%     79.81% # Class of committed instruction
system.cpu.commit.committedInstType_0::SimdFloatCvt            4      0.00%     79.81% # Class of committed instruction
system.cpu.commit.committedInstType_0::SimdFloatDiv            0      0.00%     79.81% # Class of committed instruction
system.cpu.commit.committedInstType_0::SimdFloatMisc            0      0.00%     79.81% # Class of committed instruction
system.cpu.commit.committedInstType_0::SimdFloatMult            2      0.00%     79.81% # Class of committed instruction
system.cpu.commit.committedInstType_0::SimdFloatMultAcc            0      0.00%     79.81% # Class of committed instruction
system.cpu.commit.committedInstType_0::SimdFloatSqrt            0      0.00%     79.81% # Class of committed instruction
system.cpu.commit.committedInstType_0::SimdReduceAdd            0      0.00%     79.81% # Class of committed instruction
system.cpu.commit.committedInstType_0::SimdReduceAlu            0      0.00%     79.81% # Class of committed instruction
system.cpu.commit.committedInstType_0::SimdReduceCmp            0      0.00%     79.81% # Class of committed instruction
system.cpu.commit.committedInstType_0::SimdFloatReduceAdd            0      0.00%     79.81% # Class of committed instruction
system.cpu.commit.committedInstType_0::SimdFloatReduceCmp            0      0.00%     79.81% # Class of committed instruction
system.cpu.commit.committedInstType_0::SimdAes            0      0.00%     79.81% # Class of committed instruction
system.cpu.commit.committedInstType_0::SimdAesMix            0      0.00%     79.81% # Class of committed instruction
system.cpu.commit.committedInstType_0::SimdSha1Hash            0      0.00%     79.81% # Class of committed instruction
system.cpu.commit.committedInstType_0::SimdSha1Hash2            0      0.00%     79.81% # Class of committed instruction
system.cpu.commit.committedInstType_0::SimdSha256Hash            0      0.00%     79.81% # Class of committed instruction
system.cpu.commit.committedInstType_0::SimdSha256Hash2            0      0.00%     79.81% # Class of committed instruction
system.cpu.commit.committedInstType_0::SimdShaSigma2            0      0.00%     79.81% # Class of committed instruction
system.cpu.commit.committedInstType_0::SimdShaSigma3            0      0.00%     79.81% # Class of committed instruction
system.cpu.commit.committedInstType_0::SimdPredAlu            0      0.00%     79.81% # Class of committed instruction
system.cpu.commit.committedInstType_0::MemRead     21743474     11.54%     91.35% # Class of committed instruction
system.cpu.commit.committedInstType_0::MemWrite     14086201      7.48%     98.83% # Class of committed instruction
system.cpu.commit.committedInstType_0::FloatMemRead       715788      0.38%     99.21% # Class of committed instruction
system.cpu.commit.committedInstType_0::FloatMemWrite      1491383      0.79%    100.00% # Class of committed instruction
system.cpu.commit.committedInstType_0::IprAccess            0      0.00%    100.00% # Class of committed instruction
system.cpu.commit.committedInstType_0::InstPrefetch            0      0.00%    100.00% # Class of committed instruction
system.cpu.commit.committedInstType_0::total    188377356                       # Class of committed instruction
system.cpu.commit.commitEligibleSamples       9509104                       # number cycles where commit BW limit reached
system.cpu.dcache.demand_hits::.cpu.data     34660145                       # number of demand (read+write) hits
system.cpu.dcache.demand_hits::total         34660145                       # number of demand (read+write) hits
system.cpu.dcache.overall_hits::.cpu.data     34660145                       # number of overall hits
system.cpu.dcache.overall_hits::total        34660145                       # number of overall hits
system.cpu.dcache.demand_misses::.cpu.data       353503                       # number of demand (read+write) misses
system.cpu.dcache.demand_misses::total         353503                       # number of demand (read+write) misses
system.cpu.dcache.overall_misses::.cpu.data       353503                       # number of overall misses
system.cpu.dcache.overall_misses::total        353503                       # number of overall misses
system.cpu.dcache.demand_miss_latency::.cpu.data  22441425993                       # number of demand (read+write) miss cycles
system.cpu.dcache.demand_miss_latency::total  22441425993                       # number of demand (read+write) miss cycles
system.cpu.dcache.overall_miss_latency::.cpu.data  22441425993                       # number of overall miss cycles
system.cpu.dcache.overall_miss_latency::total  22441425993                       # number of overall miss cycles
system.cpu.dcache.demand_accesses::.cpu.data     35013648                       # number of demand (read+write) accesses
system.cpu.dcache.demand_accesses::total     35013648                       # number of demand (read+write) accesses
system.cpu.dcache.overall_accesses::.cpu.data     35013648                       # number of overall (read+write) accesses
system.cpu.dcache.overall_accesses::total     35013648                       # number of overall (read+write) accesses
system.cpu.dcache.demand_miss_rate::.cpu.data     0.010096                       # miss rate for demand accesses
system.cpu.dcache.demand_miss_rate::total     0.010096                       # miss rate for demand accesses
system.cpu.dcache.overall_miss_rate::.cpu.data     0.010096                       # miss rate for overall accesses
system.cpu.dcache.overall_miss_rate::total     0.010096                       # miss rate for overall accesses
system.cpu.dcache.demand_avg_miss_latency::.cpu.data 63482.985980                       # average overall miss latency
system.cpu.dcache.demand_avg_miss_latency::total 63482.985980                       # average overall miss latency
system.cpu.dcache.overall_avg_miss_latency::.cpu.data 63482.985980                       # average overall miss latency
system.cpu.dcache.overall_avg_miss_latency::total 63482.985980                       # average overall miss latency
system.cpu.dcache.blocked_cycles::no_mshrs        24678                       # number of cycles access was blocked
system.cpu.dcache.blocked_cycles::no_targets            0                       # number of cycles access was blocked
system.cpu.dcache.blocked::no_mshrs               828                       # number of cycles access was blocked
system.cpu.dcache.blocked::no_targets               0                       # number of cycles access was blocked
system.cpu.dcache.avg_blocked_cycles::no_mshrs    29.804348                       # average number of cycles each access was blocked
system.cpu.dcache.avg_blocked_cycles::no_targets          nan                       # average number of cycles each access was blocked
system.cpu.dcache.writebacks::.writebacks       242921                       # number of writebacks
system.cpu.dcache.writebacks::total            242921                       # number of writebacks
system.cpu.dcache.demand_mshr_hits::.cpu.data        94811                       # number of demand (read+write) MSHR hits
system.cpu.dcache.demand_mshr_hits::total        94811                       # number of demand (read+write) MSHR hits
system.cpu.dcache.overall_mshr_hits::.cpu.data        94811                       # number of overall MSHR hits
system.cpu.dcache.overall_mshr_hits::total        94811                       # number of overall MSHR hits
system.cpu.dcache.demand_mshr_misses::.cpu.data       258692                       # number of demand (read+write) MSHR misses
system.cpu.dcache.demand_mshr_misses::total       258692                       # number of demand (read+write) MSHR misses
system.cpu.dcache.overall_mshr_misses::.cpu.data       258692                       # number of overall MSHR misses
system.cpu.dcache.overall_mshr_misses::total       258692                       # number of overall MSHR misses
system.cpu.dcache.demand_mshr_miss_latency::.cpu.data  18111193993                       # number of demand (read+write) MSHR miss cycles
system.cpu.dcache.demand_mshr_miss_latency::total  18111193993                       # number of demand (read+write) MSHR miss cycles
system.cpu.dcache.overall_mshr_miss_latency::.cpu.data  18111193993                       # number of overall MSHR miss cycles
system.cpu.dcache.overall_mshr_miss_latency::total  18111193993                       # number of overall MSHR miss cycles
system.cpu.dcache.demand_mshr_miss_rate::.cpu.data     0.007388                       # mshr miss rate for demand accesses
system.cpu.dcache.demand_mshr_miss_rate::total     0.007388                       # mshr miss rate for demand accesses
system.cpu.dcache.overall_mshr_miss_rate::.cpu.data     0.007388                       # mshr miss rate for overall accesses
system.cpu.dcache.overall_mshr_miss_rate::total     0.007388                       # mshr miss rate for overall accesses
system.cpu.dcache.demand_avg_mshr_miss_latency::.cpu.data 70010.645838                       # average overall mshr miss latency
system.cpu.dcache.demand_avg_mshr_miss_latency::total 70010.645838                       # average overall mshr miss latency
system.cpu.dcache.overall_avg_mshr_miss_latency::.cpu.data 70010.645838                       # average overall mshr miss latency
system.cpu.dcache.overall_avg_mshr_miss_latency::total 70010.645838                       # average overall mshr miss latency
system.cpu.dcache.replacements                 258177                       # number of replacements
system.cpu.dcache.ReadReq_hits::.cpu.data     19275507                       # number of ReadReq hits
system.cpu.dcache.ReadReq_hits::total        19275507                       # number of ReadReq hits
system.cpu.dcache.ReadReq_misses::.cpu.data       160556                       # number of ReadReq misses
system.cpu.dcache.ReadReq_misses::total        160556                       # number of ReadReq misses
system.cpu.dcache.ReadReq_miss_latency::.cpu.data   8120118000                       # number of ReadReq miss cycles
system.cpu.dcache.ReadReq_miss_latency::total   8120118000                       # number of ReadReq miss cycles
system.cpu.dcache.ReadReq_accesses::.cpu.data     19436063                       # number of ReadReq accesses(hits+misses)
system.cpu.dcache.ReadReq_accesses::total     19436063                       # number of ReadReq accesses(hits+misses)
system.cpu.dcache.ReadReq_miss_rate::.cpu.data     0.008261                       # miss rate for ReadReq accesses
system.cpu.dcache.ReadReq_miss_rate::total     0.008261                       # miss rate for ReadReq accesses
system.cpu.dcache.ReadReq_avg_miss_latency::.cpu.data 50574.989412                       # average ReadReq miss latency
system.cpu.dcache.ReadReq_avg_miss_latency::total 50574.989412                       # average ReadReq miss latency
system.cpu.dcache.ReadReq_mshr_hits::.cpu.data        82594                       # number of ReadReq MSHR hits
system.cpu.dcache.ReadReq_mshr_hits::total        82594                       # number of ReadReq MSHR hits
system.cpu.dcache.ReadReq_mshr_misses::.cpu.data        77962                       # number of ReadReq MSHR misses
system.cpu.dcache.ReadReq_mshr_misses::total        77962                       # number of ReadReq MSHR misses
system.cpu.dcache.ReadReq_mshr_miss_latency::.cpu.data   4228052500                       # number of ReadReq MSHR miss cycles
system.cpu.dcache.ReadReq_mshr_miss_latency::total   4228052500                       # number of ReadReq MSHR miss cycles
system.cpu.dcache.ReadReq_mshr_miss_rate::.cpu.data     0.004011                       # mshr miss rate for ReadReq accesses
system.cpu.dcache.ReadReq_mshr_miss_rate::total     0.004011                       # mshr miss rate for ReadReq accesses
system.cpu.dcache.ReadReq_avg_mshr_miss_latency::.cpu.data 54232.222108                       # average ReadReq mshr miss latency
system.cpu.dcache.ReadReq_avg_mshr_miss_latency::total 54232.222108                       # average ReadReq mshr miss latency
system.cpu.dcache.WriteReq_hits::.cpu.data     15384638                       # number of WriteReq hits
system.cpu.dcache.WriteReq_hits::total       15384638                       # number of WriteReq hits
system.cpu.dcache.WriteReq_misses::.cpu.data       192947                       # number of WriteReq misses
system.cpu.dcache.WriteReq_misses::total       192947                       # number of WriteReq misses
system.cpu.dcache.WriteReq_miss_latency::.cpu.data  14321307993                       # number of WriteReq miss cycles
system.cpu.dcache.WriteReq_miss_latency::total  14321307993                       # number of WriteReq miss cycles
system.cpu.dcache.WriteReq_accesses::.cpu.data     15577585                       # number of WriteReq accesses(hits+misses)
system.cpu.dcache.WriteReq_accesses::total     15577585                       # number of WriteReq accesses(hits+misses)
system.cpu.dcache.WriteReq_miss_rate::.cpu.data     0.012386                       # miss rate for WriteReq accesses
system.cpu.dcache.WriteReq_miss_rate::total     0.012386                       # miss rate for WriteReq accesses
system.cpu.dcache.WriteReq_avg_miss_latency::.cpu.data 74224.051128                       # average WriteReq miss latency
system.cpu.dcache.WriteReq_avg_miss_latency::total 74224.051128                       # average WriteReq miss latency
system.cpu.dcache.WriteReq_mshr_hits::.cpu.data        12217                       # number of WriteReq MSHR hits
system.cpu.dcache.WriteReq_mshr_hits::total        12217                       # number of WriteReq MSHR hits
system.cpu.dcache.WriteReq_mshr_misses::.cpu.data       180730                       # number of WriteReq MSHR misses
system.cpu.dcache.WriteReq_mshr_misses::total       180730                       # number of WriteReq MSHR misses
system.cpu.dcache.WriteReq_mshr_miss_latency::.cpu.data  13883141493                       # number of WriteReq MSHR miss cycles
system.cpu.dcache.WriteReq_mshr_miss_latency::total  13883141493                       # number of WriteReq MSHR miss cycles
system.cpu.dcache.WriteReq_mshr_miss_rate::.cpu.data     0.011602                       # mshr miss rate for WriteReq accesses
system.cpu.dcache.WriteReq_mshr_miss_rate::total     0.011602                       # mshr miss rate for WriteReq accesses
system.cpu.dcache.WriteReq_avg_mshr_miss_latency::.cpu.data 76817.028125                       # average WriteReq mshr miss latency
system.cpu.dcache.WriteReq_avg_mshr_miss_latency::total 76817.028125                       # average WriteReq mshr miss latency
system.cpu.dcache.power_state.pwrStateResidencyTicks::UNDEFINED  41286765500                       # Cumulative time (in ticks) in various power states
system.cpu.dcache.tags.tagsinuse           511.648006                       # Cycle average of tags in use
system.cpu.dcache.tags.total_refs            34918837                       # Total number of references to valid blocks.
system.cpu.dcache.tags.sampled_refs            258689                       # Sample count of references to valid blocks.
system.cpu.dcache.tags.avg_refs            134.983849                       # Average number of references to valid blocks.
system.cpu.dcache.tags.warmup_cycle            163000                       # Cycle when the warmup percentage was hit.
system.cpu.dcache.tags.occ_blocks::.cpu.data   511.648006                       # Average occupied blocks per requestor
system.cpu.dcache.tags.occ_percent::.cpu.data     0.999313                       # Average percentage of cache occupancy
system.cpu.dcache.tags.occ_percent::total     0.999313                       # Average percentage of cache occupancy
system.cpu.dcache.tags.occ_task_id_blocks::1024          512                       # Occupied blocks per task id
system.cpu.dcache.tags.age_task_id_blocks_1024::0           31                       # Occupied blocks per task id
system.cpu.dcache.tags.age_task_id_blocks_1024::1          245                       # Occupied blocks per task id
system.cpu.dcache.tags.age_task_id_blocks_1024::2          206                       # Occupied blocks per task id
system.cpu.dcache.tags.age_task_id_blocks_1024::3           18                       # Occupied blocks per task id
system.cpu.dcache.tags.age_task_id_blocks_1024::4           12                       # Occupied blocks per task id
system.cpu.dcache.tags.occ_task_id_percent::1024            1                       # Percentage of cache occupancy per task id
system.cpu.dcache.tags.tag_accesses          70285985                       # Number of tag accesses
system.cpu.dcache.tags.data_accesses         70285985                       # Number of data accesses
system.cpu.dcache.tags.power_state.pwrStateResidencyTicks::UNDEFINED  41286765500                       # Cumulative time (in ticks) in various power states
system.cpu.decode.idleCycles                 19903069                       # Number of cycles decode is idle
system.cpu.decode.blockedCycles              29314558                       # Number of cycles decode is blocked
system.cpu.decode.runCycles                  30858290                       # Number of cycles decode is running
system.cpu.decode.unblockCycles               2021175                       # Number of cycles decode is unblocking
system.cpu.decode.squashCycles                 387238                       # Number of cycles decode is squashing
system.cpu.decode.branchResolved              9276624                       # Number of times decode resolved a  branch
system.cpu.decode.branchMispred                 96756                       # Number of times decode detected a branch misprediction
system.cpu.decode.decodedInsts              205394346                       # Number of instructions handled by decode
system.cpu.decode.squashedInsts                533021                       # Number of squashed instructions handled by decode
system.cpu.dtb.rdAccesses                    23553338                       # TLB accesses on read requests
system.cpu.dtb.wrAccesses                    15936183                       # TLB accesses on write requests
system.cpu.dtb.rdMisses                         23483                       # TLB misses on read requests
system.cpu.dtb.wrMisses                        109824                       # TLB misses on write requests
system.cpu.dtb.walker.power_state.pwrStateResidencyTicks::UNDEFINED  41286765500                       # Cumulative time (in ticks) in various power states
system.cpu.dtb_walker_cache.blocked_cycles::no_mshrs            0                       # number of cycles access was blocked
system.cpu.dtb_walker_cache.blocked_cycles::no_targets            0                       # number of cycles access was blocked
system.cpu.dtb_walker_cache.blocked::no_mshrs            0                       # number of cycles access was blocked
system.cpu.dtb_walker_cache.blocked::no_targets            0                       # number of cycles access was blocked
system.cpu.dtb_walker_cache.avg_blocked_cycles::no_mshrs          nan                       # average number of cycles each access was blocked
system.cpu.dtb_walker_cache.avg_blocked_cycles::no_targets          nan                       # average number of cycles each access was blocked
system.cpu.dtb_walker_cache.replacements            0                       # number of replacements
system.cpu.dtb_walker_cache.power_state.pwrStateResidencyTicks::UNDEFINED  41286765500                       # Cumulative time (in ticks) in various power states
system.cpu.dtb_walker_cache.tags.tagsinuse            0                       # Cycle average of tags in use
system.cpu.dtb_walker_cache.tags.total_refs            0                       # Total number of references to valid blocks.
system.cpu.dtb_walker_cache.tags.sampled_refs            0                       # Sample count of references to valid blocks.
system.cpu.dtb_walker_cache.tags.avg_refs          nan                       # Average number of references to valid blocks.
system.cpu.dtb_walker_cache.tags.warmup_cycle            0                       # Cycle when the warmup percentage was hit.
system.cpu.dtb_walker_cache.tags.tag_accesses            0                       # Number of tag accesses
system.cpu.dtb_walker_cache.tags.data_accesses            0                       # Number of data accesses
system.cpu.dtb_walker_cache.tags.power_state.pwrStateResidencyTicks::UNDEFINED  41286765500                       # Cumulative time (in ticks) in various power states
system.cpu.fetch.icacheStallCycles           21131104                       # Number of cycles fetch is stalled on an Icache miss
system.cpu.fetch.insts                      110898390                       # Number of instructions fetch has processed
system.cpu.fetch.branches                    23932846                       # Number of branches that fetch encountered
system.cpu.fetch.predictedBranches           11138829                       # Number of branches that fetch has predicted taken
system.cpu.fetch.cycles                      60867170                       # Number of cycles fetch has run and was not squashing or blocked
system.cpu.fetch.squashCycles                  967954                       # Number of cycles fetch has spent squashing
system.cpu.fetch.miscStallCycles                  294                       # Number of cycles fetch has spent waiting on interrupts,or bad addresses, or out of MSHRs
system.cpu.fetch.pendingTrapStallCycles          1763                       # Number of stall cycles due to pending traps
system.cpu.fetch.pendingQuiesceStallCycles            9                       # Number of stall cycles due to pending quiesce instructions
system.cpu.fetch.icacheWaitRetryStallCycles           13                       # Number of stall cycles due to full MSHR
system.cpu.fetch.cacheLines                  17328213                       # Number of cache lines fetched
system.cpu.fetch.icacheSquashes                159186                       # Number of outstanding Icache misses that were squashed
system.cpu.fetch.nisnDist::samples           82484330                       # Number of instructions fetched each cycle (Total)
system.cpu.fetch.nisnDist::mean              2.556690                       # Number of instructions fetched each cycle (Total)
system.cpu.fetch.nisnDist::stdev             3.367948                       # Number of instructions fetched each cycle (Total)
system.cpu.fetch.nisnDist::underflows               0      0.00%      0.00% # Number of instructions fetched each cycle (Total)
system.cpu.fetch.nisnDist::0                 47278801     57.32%     57.32% # Number of instructions fetched each cycle (Total)
system.cpu.fetch.nisnDist::1                  1485264      1.80%     59.12% # Number of instructions fetched each cycle (Total)
system.cpu.fetch.nisnDist::2                  3842162      4.66%     63.78% # Number of instructions fetched each cycle (Total)
system.cpu.fetch.nisnDist::3                  3130277      3.79%     67.57% # Number of instructions fetched each cycle (Total)
system.cpu.fetch.nisnDist::4                  1999713      2.42%     70.00% # Number of instructions fetched each cycle (Total)
system.cpu.fetch.nisnDist::5                  2321013      2.81%     72.81% # Number of instructions fetched each cycle (Total)
system.cpu.fetch.nisnDist::6                  2415486      2.93%     75.74% # Number of instructions fetched each cycle (Total)
system.cpu.fetch.nisnDist::7                  1863299      2.26%     78.00% # Number of instructions fetched each cycle (Total)
system.cpu.fetch.nisnDist::8                 18148315     22.00%    100.00% # Number of instructions fetched each cycle (Total)
system.cpu.fetch.nisnDist::overflows                0      0.00%    100.00% # Number of instructions fetched each cycle (Total)
system.cpu.fetch.nisnDist::min_value                0                       # Number of instructions fetched each cycle (Total)
system.cpu.fetch.nisnDist::max_value                8                       # Number of instructions fetched each cycle (Total)
system.cpu.fetch.nisnDist::total             82484330                       # Number of instructions fetched each cycle (Total)
system.cpu.fetch.branchRate                  0.289837                       # Number of branch fetches per cycle
system.cpu.fetch.rate                        1.343026                       # Number of inst fetches per cycle
system.cpu.icache.demand_hits::.cpu.inst     17181567                       # number of demand (read+write) hits
system.cpu.icache.demand_hits::total         17181567                       # number of demand (read+write) hits
system.cpu.icache.overall_hits::.cpu.inst     17181567                       # number of overall hits
system.cpu.icache.overall_hits::total        17181567                       # number of overall hits
system.cpu.icache.demand_misses::.cpu.inst       146645                       # number of demand (read+write) misses
system.cpu.icache.demand_misses::total         146645                       # number of demand (read+write) misses
system.cpu.icache.overall_misses::.cpu.inst       146645                       # number of overall misses
system.cpu.icache.overall_misses::total        146645                       # number of overall misses
system.cpu.icache.demand_miss_latency::.cpu.inst   2010292000                       # number of demand (read+write) miss cycles
system.cpu.icache.demand_miss_latency::total   2010292000                       # number of demand (read+write) miss cycles
system.cpu.icache.overall_miss_latency::.cpu.inst   2010292000                       # number of overall miss cycles
system.cpu.icache.overall_miss_latency::total   2010292000                       # number of overall miss cycles
system.cpu.icache.demand_accesses::.cpu.inst     17328212                       # number of demand (read+write) accesses
system.cpu.icache.demand_accesses::total     17328212                       # number of demand (read+write) accesses
system.cpu.icache.overall_accesses::.cpu.inst     17328212                       # number of overall (read+write) accesses
system.cpu.icache.overall_accesses::total     17328212                       # number of overall (read+write) accesses
system.cpu.icache.demand_miss_rate::.cpu.inst     0.008463                       # miss rate for demand accesses
system.cpu.icache.demand_miss_rate::total     0.008463                       # miss rate for demand accesses
system.cpu.icache.overall_miss_rate::.cpu.inst     0.008463                       # miss rate for overall accesses
system.cpu.icache.overall_miss_rate::total     0.008463                       # miss rate for overall accesses
system.cpu.icache.demand_avg_miss_latency::.cpu.inst 13708.561492                       # average overall miss latency
system.cpu.icache.demand_avg_miss_latency::total 13708.561492                       # average overall miss latency
system.cpu.icache.overall_avg_miss_latency::.cpu.inst 13708.561492                       # average overall miss latency
system.cpu.icache.overall_avg_miss_latency::total 13708.561492                       # average overall miss latency
system.cpu.icache.blocked_cycles::no_mshrs          359                       # number of cycles access was blocked
system.cpu.icache.blocked_cycles::no_targets            0                       # number of cycles access was blocked
system.cpu.icache.blocked::no_mshrs                 6                       # number of cycles access was blocked
system.cpu.icache.blocked::no_targets               0                       # number of cycles access was blocked
system.cpu.icache.avg_blocked_cycles::no_mshrs    59.833333                       # average number of cycles each access was blocked
system.cpu.icache.avg_blocked_cycles::no_targets          nan                       # average number of cycles each access was blocked
system.cpu.icache.writebacks::.writebacks       145396                       # number of writebacks
system.cpu.icache.writebacks::total            145396                       # number of writebacks
system.cpu.icache.demand_mshr_hits::.cpu.inst          740                       # number of demand (read+write) MSHR hits
system.cpu.icache.demand_mshr_hits::total          740                       # number of demand (read+write) MSHR hits
system.cpu.icache.overall_mshr_hits::.cpu.inst          740                       # number of overall MSHR hits
system.cpu.icache.overall_mshr_hits::total          740                       # number of overall MSHR hits
system.cpu.icache.demand_mshr_misses::.cpu.inst       145905                       # number of demand (read+write) MSHR misses
system.cpu.icache.demand_mshr_misses::total       145905                       # number of demand (read+write) MSHR misses
system.cpu.icache.overall_mshr_misses::.cpu.inst       145905                       # number of overall MSHR misses
system.cpu.icache.overall_mshr_misses::total       145905                       # number of overall MSHR misses
system.cpu.icache.demand_mshr_miss_latency::.cpu.inst   1837706500                       # number of demand (read+write) MSHR miss cycles
system.cpu.icache.demand_mshr_miss_latency::total   1837706500                       # number of demand (read+write) MSHR miss cycles
system.cpu.icache.overall_mshr_miss_latency::.cpu.inst   1837706500                       # number of overall MSHR miss cycles
system.cpu.icache.overall_mshr_miss_latency::total   1837706500                       # number of overall MSHR miss cycles
system.cpu.icache.demand_mshr_miss_rate::.cpu.inst     0.008420                       # mshr miss rate for demand accesses
system.cpu.icache.demand_mshr_miss_rate::total     0.008420                       # mshr miss rate for demand accesses
system.cpu.icache.overall_mshr_miss_rate::.cpu.inst     0.008420                       # mshr miss rate for overall accesses
system.cpu.icache.overall_mshr_miss_rate::total     0.008420                       # mshr miss rate for overall accesses
system.cpu.icache.demand_avg_mshr_miss_latency::.cpu.inst 12595.226346                       # average overall mshr miss latency
system.cpu.icache.demand_avg_mshr_miss_latency::total 12595.226346                       # average overall mshr miss latency
system.cpu.icache.overall_avg_mshr_miss_latency::.cpu.inst 12595.226346                       # average overall mshr miss latency
system.cpu.icache.overall_avg_mshr_miss_latency::total 12595.226346                       # average overall mshr miss latency
system.cpu.icache.replacements                 145396                       # number of replacements
system.cpu.icache.ReadReq_hits::.cpu.inst     17181567                       # number of ReadReq hits
system.cpu.icache.ReadReq_hits::total        17181567                       # number of ReadReq hits
system.cpu.icache.ReadReq_misses::.cpu.inst       146645                       # number of ReadReq misses
system.cpu.icache.ReadReq_misses::total        146645                       # number of ReadReq misses
system.cpu.icache.ReadReq_miss_latency::.cpu.inst   2010292000                       # number of ReadReq miss cycles
system.cpu.icache.ReadReq_miss_latency::total   2010292000                       # number of ReadReq miss cycles
system.cpu.icache.ReadReq_accesses::.cpu.inst     17328212                       # number of ReadReq accesses(hits+misses)
system.cpu.icache.ReadReq_accesses::total     17328212                       # number of ReadReq accesses(hits+misses)
system.cpu.icache.ReadReq_miss_rate::.cpu.inst     0.008463                       # miss rate for ReadReq accesses
system.cpu.icache.ReadReq_miss_rate::total     0.008463                       # miss rate for ReadReq accesses
system.cpu.icache.ReadReq_avg_miss_latency::.cpu.inst 13708.561492                       # average ReadReq miss latency
system.cpu.icache.ReadReq_avg_miss_latency::total 13708.561492                       # average ReadReq miss latency
system.cpu.icache.ReadReq_mshr_hits::.cpu.inst          740                       # number of ReadReq MSHR hits
system.cpu.icache.ReadReq_mshr_hits::total          740                       # number of ReadReq MSHR hits
system.cpu.icache.ReadReq_mshr_misses::.cpu.inst       145905                       # number of ReadReq MSHR misses
system.cpu.icache.ReadReq_mshr_misses::total       145905                       # number of ReadReq MSHR misses
system.cpu.icache.ReadReq_mshr_miss_latency::.cpu.inst   1837706500                       # number of ReadReq MSHR miss cycles
system.cpu.icache.ReadReq_mshr_miss_latency::total   1837706500                       # number of ReadReq MSHR miss cycles
system.cpu.icache.ReadReq_mshr_miss_rate::.cpu.inst     0.008420                       # mshr miss rate for ReadReq accesses
system.cpu.icache.ReadReq_mshr_miss_rate::total     0.008420                       # mshr miss rate for ReadReq accesses
system.cpu.icache.ReadReq_avg_mshr_miss_latency::.cpu.inst 12595.226346                       # average ReadReq mshr miss latency
system.cpu.icache.ReadReq_avg_mshr_miss_latency::total 12595.226346                       # average ReadReq mshr miss latency
system.cpu.icache.power_state.pwrStateResidencyTicks::UNDEFINED  41286765500                       # Cumulative time (in ticks) in various power states
system.cpu.icache.tags.tagsinuse           505.615443                       # Cycle average of tags in use
system.cpu.icache.tags.total_refs            17327472                       # Total number of references to valid blocks.
system.cpu.icache.tags.sampled_refs            145905                       # Sample count of references to valid blocks.
system.cpu.icache.tags.avg_refs            118.758589                       # Average number of references to valid blocks.
system.cpu.icache.tags.warmup_cycle             79500                       # Cycle when the warmup percentage was hit.
system.cpu.icache.tags.occ_blocks::.cpu.inst   505.615443                       # Average occupied blocks per requestor
system.cpu.icache.tags.occ_percent::.cpu.inst     0.987530                       # Average percentage of cache occupancy
system.cpu.icache.tags.occ_percent::total     0.987530                       # Average percentage of cache occupancy
system.cpu.icache.tags.occ_task_id_blocks::1024          506                       # Occupied blocks per task id
system.cpu.icache.tags.age_task_id_blocks_1024::0            2                       # Occupied blocks per task id
system.cpu.icache.tags.age_task_id_blocks_1024::1            2                       # Occupied blocks per task id
system.cpu.icache.tags.age_task_id_blocks_1024::3            3                       # Occupied blocks per task id
system.cpu.icache.tags.age_task_id_blocks_1024::4          499                       # Occupied blocks per task id
system.cpu.icache.tags.occ_task_id_percent::1024     0.988281                       # Percentage of cache occupancy per task id
system.cpu.icache.tags.tag_accesses          34802329                       # Number of tag accesses
system.cpu.icache.tags.data_accesses         34802329                       # Number of data accesses
system.cpu.icache.tags.power_state.pwrStateResidencyTicks::UNDEFINED  41286765500                       # Cumulative time (in ticks) in various power states
system.cpu.interrupts.clk_domain.clock           8000                       # Clock period in ticks
system.cpu.itb.rdAccesses                           0                       # TLB accesses on read requests
system.cpu.itb.wrAccesses                    17328480                       # TLB accesses on write requests
system.cpu.itb.rdMisses                             0                       # TLB misses on read requests
system.cpu.itb.wrMisses                           404                       # TLB misses on write requests
system.cpu.itb.walker.power_state.pwrStateResidencyTicks::UNDEFINED  41286765500                       # Cumulative time (in ticks) in various power states
system.cpu.itb_walker_cache.blocked_cycles::no_mshrs            0                       # number of cycles access was blocked
system.cpu.itb_walker_cache.blocked_cycles::no_targets            0                       # number of cycles access was blocked
system.cpu.itb_walker_cache.blocked::no_mshrs            0                       # number of cycles access was blocked
system.cpu.itb_walker_cache.blocked::no_targets            0                       # number of cycles access was blocked
system.cpu.itb_walker_cache.avg_blocked_cycles::no_mshrs          nan                       # average number of cycles each access was blocked
system.cpu.itb_walker_cache.avg_blocked_cycles::no_targets          nan                       # average number of cycles each access was blocked
system.cpu.itb_walker_cache.replacements            0                       # number of replacements
system.cpu.itb_walker_cache.power_state.pwrStateResidencyTicks::UNDEFINED  41286765500                       # Cumulative time (in ticks) in various power states
system.cpu.itb_walker_cache.tags.tagsinuse            0                       # Cycle average of tags in use
system.cpu.itb_walker_cache.tags.total_refs            0                       # Total number of references to valid blocks.
system.cpu.itb_walker_cache.tags.sampled_refs            0                       # Sample count of references to valid blocks.
system.cpu.itb_walker_cache.tags.avg_refs          nan                       # Average number of references to valid blocks.
system.cpu.itb_walker_cache.tags.warmup_cycle            0                       # Cycle when the warmup percentage was hit.
system.cpu.itb_walker_cache.tags.tag_accesses            0                       # Number of tag accesses
system.cpu.itb_walker_cache.tags.data_accesses            0                       # Number of data accesses
system.cpu.itb_walker_cache.tags.power_state.pwrStateResidencyTicks::UNDEFINED  41286765500                       # Cumulative time (in ticks) in various power states
system.cpu.lsq0.forwLoads                     4068620                       # Number of loads that had data forwarded from stores
system.cpu.lsq0.squashedLoads                 1396613                       # Number of loads squashed
system.cpu.lsq0.ignoredResponses                37066                       # Number of memory responses ignored because the instruction is squashed
system.cpu.lsq0.memOrderViolation                1213                       # Number of memory ordering violations
system.cpu.lsq0.squashedStores                 727639                       # Number of stores squashed
system.cpu.lsq0.rescheduledLoads                48033                       # Number of loads that were rescheduled
system.cpu.lsq0.blockedByCache                    460                       # Number of times an access to memory failed due to the cache being blocked
system.cpu.power_state.pwrStateResidencyTicks::ON  41286765500                       # Cumulative time (in ticks) in various power states
system.cpu.rename.squashCycles                 387238                       # Number of cycles rename is squashing
system.cpu.rename.idleCycles                 20999797                       # Number of cycles rename is idle
system.cpu.rename.blockCycles                 9899877                       # Number of cycles rename is blocking
system.cpu.rename.serializeStallCycles           2616                       # count of cycles rename stalledfor serializing inst
system.cpu.rename.runCycles                  31713784                       # Number of cycles rename is running
system.cpu.rename.unblockCycles              19481018                       # Number of cycles rename is unblocking
system.cpu.rename.renamedInsts              203878853                       # Number of instructions processed by rename
system.cpu.rename.ROBFullEvents                126763                       # Number of times rename has blocked due to ROB full
system.cpu.rename.IQFullEvents                 813498                       # Number of times rename has blocked due to IQ full
system.cpu.rename.LQFullEvents                    727                       # Number of times rename has blocked due to LQ full
system.cpu.rename.SQFullEvents               18314210                       # Number of times rename has blocked due to SQ full
system.cpu.rename.fullRegistersEvents              76                       # Number of times there has been no free registers
system.cpu.rename.renamedOperands           227183645                       # Number of destination operands rename has renamed
system.cpu.rename.lookups                   534405837                       # Number of register rename lookups that rename has made
system.cpu.rename.intLookups                314684201                       # Number of integer rename lookups
system.cpu.rename.fpLookups                   6324579                       # Number of floating rename lookups
system.cpu.rename.committedMaps             208332735                       # Number of HB maps that are committed
system.cpu.rename.undoneMaps                 18850852                       # Number of HB maps that are undone due to squashing
system.cpu.rename.serializing                      40                       # count of serializing insts renamed
system.cpu.rename.tempSerializing                  22                       # count of temporary serializing insts renamed
system.cpu.rename.skidInsts                  11708830                       # count of insts added to the skid buffer
system.cpu.rob.reads                        271988017                       # The number of ROB reads
system.cpu.rob.writes                       403451423                       # The number of ROB writes
system.cpu.thread_0.numInsts                100000001                       # Number of Instructions committed
system.cpu.thread_0.numOps                  188377356                       # Number of Ops committed
system.cpu.thread_0.numMemRefs                      0                       # Number of Memory References
system.cpu_clk_domain.clock                       500                       # Clock period in ticks
system.cpu_voltage_domain.voltage                   1                       # Voltage in Volts
system.l2.demand_hits::.cpu.inst               144532                       # number of demand (read+write) hits
system.l2.demand_hits::.cpu.data                49552                       # number of demand (read+write) hits
system.l2.demand_hits::total                   194084                       # number of demand (read+write) hits
system.l2.overall_hits::.cpu.inst              144532                       # number of overall hits
system.l2.overall_hits::.cpu.data               49552                       # number of overall hits
system.l2.overall_hits::total                  194084                       # number of overall hits
system.l2.demand_misses::.cpu.inst               1370                       # number of demand (read+write) misses
system.l2.demand_misses::.cpu.data             209137                       # number of demand (read+write) misses
system.l2.demand_misses::total                 210507                       # number of demand (read+write) misses
system.l2.overall_misses::.cpu.inst              1370                       # number of overall misses
system.l2.overall_misses::.cpu.data            209137                       # number of overall misses
system.l2.overall_misses::total                210507                       # number of overall misses
system.l2.demand_miss_latency::.cpu.inst     96718500                       # number of demand (read+write) miss cycles
system.l2.demand_miss_latency::.cpu.data  17190831500                       # number of demand (read+write) miss cycles
system.l2.demand_miss_latency::total      17287550000                       # number of demand (read+write) miss cycles
system.l2.overall_miss_latency::.cpu.inst     96718500                       # number of overall miss cycles
system.l2.overall_miss_latency::.cpu.data  17190831500                       # number of overall miss cycles
system.l2.overall_miss_latency::total     17287550000                       # number of overall miss cycles
system.l2.demand_accesses::.cpu.inst           145902                       # number of demand (read+write) accesses
system.l2.demand_accesses::.cpu.data           258689                       # number of demand (read+write) accesses
system.l2.demand_accesses::total               404591                       # number of demand (read+write) accesses
system.l2.overall_accesses::.cpu.inst          145902                       # number of overall (read+write) accesses
system.l2.overall_accesses::.cpu.data          258689                       # number of overall (read+write) accesses
system.l2.overall_accesses::total              404591                       # number of overall (read+write) accesses
system.l2.demand_miss_rate::.cpu.inst        0.009390                       # miss rate for demand accesses
system.l2.demand_miss_rate::.cpu.data        0.808450                       # miss rate for demand accesses
system.l2.demand_miss_rate::total            0.520296                       # miss rate for demand accesses
system.l2.overall_miss_rate::.cpu.inst       0.009390                       # miss rate for overall accesses
system.l2.overall_miss_rate::.cpu.data       0.808450                       # miss rate for overall accesses
system.l2.overall_miss_rate::total           0.520296                       # miss rate for overall accesses
system.l2.demand_avg_miss_latency::.cpu.inst 70597.445255                       # average overall miss latency
system.l2.demand_avg_miss_latency::.cpu.data 82198.900721                       # average overall miss latency
[...]
system.mem_ctrls.dram.readBursts               210503                       # Number of DRAM read bursts
system.mem_ctrls.dram.writeBursts              198734                       # Number of DRAM write bursts
system.mem_ctrls.dram.perBankRdBursts::0        12919                       # Per bank write bursts
system.mem_ctrls.dram.perBankRdBursts::1        13105                       # Per bank write bursts
system.mem_ctrls.dram.perBankRdBursts::2        13061                       # Per bank write bursts
system.mem_ctrls.dram.perBankRdBursts::3        13203                       # Per bank write bursts
system.mem_ctrls.dram.perBankRdBursts::4        13264                       # Per bank write bursts
system.mem_ctrls.dram.perBankRdBursts::5        13373                       # Per bank write bursts
system.mem_ctrls.dram.perBankRdBursts::6        13126                       # Per bank write bursts
system.mem_ctrls.dram.perBankRdBursts::7        13205                       # Per bank write bursts
system.mem_ctrls.dram.perBankRdBursts::8        13283                       # Per bank write bursts
system.mem_ctrls.dram.perBankRdBursts::9        13088                       # Per bank write bursts
system.mem_ctrls.dram.perBankRdBursts::10        13037                       # Per bank write bursts
system.mem_ctrls.dram.perBankRdBursts::11        13114                       # Per bank write bursts
system.mem_ctrls.dram.perBankRdBursts::12        13207                       # Per bank write bursts
system.mem_ctrls.dram.perBankRdBursts::13        13261                       # Per bank write bursts
system.mem_ctrls.dram.perBankRdBursts::14        13113                       # Per bank write bursts
system.mem_ctrls.dram.perBankRdBursts::15        13144                       # Per bank write bursts
system.mem_ctrls.dram.perBankWrBursts::0        12179                       # Per bank write bursts
system.mem_ctrls.dram.perBankWrBursts::1        12312                       # Per bank write bursts
system.mem_ctrls.dram.perBankWrBursts::2        12395                       # Per bank write bursts
system.mem_ctrls.dram.perBankWrBursts::3        12502                       # Per bank write bursts
system.mem_ctrls.dram.perBankWrBursts::4        12480                       # Per bank write bursts
system.mem_ctrls.dram.perBankWrBursts::5        12566                       # Per bank write bursts
system.mem_ctrls.dram.perBankWrBursts::6        12385                       # Per bank write bursts
system.mem_ctrls.dram.perBankWrBursts::7        12467                       # Per bank write bursts
system.mem_ctrls.dram.perBankWrBursts::8        12541                       # Per bank write bursts
system.mem_ctrls.dram.perBankWrBursts::9        12385                       # Per bank write bursts
system.mem_ctrls.dram.perBankWrBursts::10        12318                       # Per bank write bursts
system.mem_ctrls.dram.perBankWrBursts::11        12437                       # Per bank write bursts
system.mem_ctrls.dram.perBankWrBursts::12        12434                       # Per bank write bursts
system.mem_ctrls.dram.perBankWrBursts::13        12479                       # Per bank write bursts
system.mem_ctrls.dram.perBankWrBursts::14        12388                       # Per bank write bursts
system.mem_ctrls.dram.perBankWrBursts::15        12466                       # Per bank write bursts
system.mem_ctrls.dram.totQLat              4252752750                       # Total ticks spent queuing
system.mem_ctrls.dram.totBusLat            1052515000                       # Total ticks spent in databus transfers
system.mem_ctrls.dram.totMemAccLat         8199684000                       # Total ticks spent from burst creation until serviced by the DRAM
system.mem_ctrls.dram.avgQLat                20202.81                       # Average queueing delay per DRAM burst
system.mem_ctrls.dram.avgBusLat               5000.00                       # Average bus latency per DRAM burst
system.mem_ctrls.dram.avgMemAccLat           38952.81                       # Average memory access latency per DRAM burst
system.mem_ctrls.dram.readRowHits               78064                       # Number of row buffer hits during reads
system.mem_ctrls.dram.writeRowHits              91649                       # Number of row buffer hits during writes
system.mem_ctrls.dram.readRowHitRate            37.08                       # Row buffer hit rate for reads
system.mem_ctrls.dram.writeRowHitRate           46.12                       # Row buffer hit rate for writes
system.mem_ctrls.dram.bytesPerActivate::samples       239520                       # Bytes accessed per row activation
system.mem_ctrls.dram.bytesPerActivate::mean   109.347495                       # Bytes accessed per row activation
system.mem_ctrls.dram.bytesPerActivate::gmean    86.804893                       # Bytes accessed per row activation
system.mem_ctrls.dram.bytesPerActivate::stdev   111.086807                       # Bytes accessed per row activation
system.mem_ctrls.dram.bytesPerActivate::0-127       173544     72.45%     72.45% # Bytes accessed per row activation
system.mem_ctrls.dram.bytesPerActivate::128-255        45265     18.90%     91.35% # Bytes accessed per row activation
system.mem_ctrls.dram.bytesPerActivate::256-383         9552      3.99%     95.34% # Bytes accessed per row activation
system.mem_ctrls.dram.bytesPerActivate::384-511         5198      2.17%     97.51% # Bytes accessed per row activation
system.mem_ctrls.dram.bytesPerActivate::512-639         3514      1.47%     98.98% # Bytes accessed per row activation
system.mem_ctrls.dram.bytesPerActivate::640-767         1289      0.54%     99.52% # Bytes accessed per row activation
system.mem_ctrls.dram.bytesPerActivate::768-895          671      0.28%     99.80% # Bytes accessed per row activation
system.mem_ctrls.dram.bytesPerActivate::896-1023          213      0.09%     99.89% # Bytes accessed per row activation
system.mem_ctrls.dram.bytesPerActivate::1024-1151          274      0.11%    100.00% # Bytes accessed per row activation
system.mem_ctrls.dram.bytesPerActivate::total       239520                       # Bytes accessed per row activation
system.mem_ctrls.dram.bytesRead              13472192                       # Total number of bytes read from DRAM
system.mem_ctrls.dram.bytesWritten           12718976                       # Total number of bytes written to DRAM
system.mem_ctrls.dram.avgRdBW              326.307761                       # Average DRAM read bandwidth in MiBytes/s
system.mem_ctrls.dram.avgWrBW              308.064239                       # Average DRAM write bandwidth in MiBytes/s
system.mem_ctrls.dram.peakBW                 12800.00                       # Theoretical peak bandwidth in MiByte/s
system.mem_ctrls.dram.busUtil                    4.96                       # Data bus utilization in percentage
system.mem_ctrls.dram.busUtilRead                2.55                       # Data bus utilization in percentage for reads
system.mem_ctrls.dram.busUtilWrite               2.41                       # Data bus utilization in percentage for writes
system.mem_ctrls.dram.pageHitRate               41.47                       # Row buffer hit rate, read and write combined
system.mem_ctrls.dram.power_state.pwrStateResidencyTicks::UNDEFINED  41286765500                       # Cumulative time (in ticks) in various power states
system.mem_ctrls.dram.rank0.actEnergy       856086000                       # Energy for activate commands per rank (pJ)
system.mem_ctrls.dram.rank0.preEnergy       455009115                       # Energy for precharge commands per rank (pJ)
system.mem_ctrls.dram.rank0.readEnergy      751527840                       # Energy for read commands per rank (pJ)
system.mem_ctrls.dram.rank0.writeEnergy     518272920                       # Energy for write commands per rank (pJ)
system.mem_ctrls.dram.rank0.refreshEnergy 3258821280.000000                       # Energy for refresh commands per rank (pJ)
system.mem_ctrls.dram.rank0.actBackEnergy  17872617330                       # Energy for active background per rank (pJ)
system.mem_ctrls.dram.rank0.preBackEnergy    803493120                       # Energy for precharge background per rank (pJ)
system.mem_ctrls.dram.rank0.actPowerDownEnergy            0                       # Energy for active power-down per rank (pJ)
system.mem_ctrls.dram.rank0.prePowerDownEnergy            0                       # Energy for precharge power-down per rank (pJ)
system.mem_ctrls.dram.rank0.selfRefreshEnergy            0                       # Energy for self refresh per rank (pJ)
system.mem_ctrls.dram.rank0.totalEnergy   24515827605                       # Total energy per rank (pJ)
system.mem_ctrls.dram.rank0.averagePower   593.793854                       # Core power per rank (mW)
system.mem_ctrls.dram.rank0.totalIdleTime            0                       # Total Idle time Per DRAM Rank
system.mem_ctrls.dram.rank0.pwrStateTime::IDLE   1939039000                       # Time in different power states
system.mem_ctrls.dram.rank0.pwrStateTime::REF   1378520000                       # Time in different power states
system.mem_ctrls.dram.rank0.pwrStateTime::SREF            0                       # Time in different power states
system.mem_ctrls.dram.rank0.pwrStateTime::PRE_PDN            0                       # Time in different power states
system.mem_ctrls.dram.rank0.pwrStateTime::ACT  37969206500                       # Time in different power states
system.mem_ctrls.dram.rank0.pwrStateTime::ACT_PDN            0                       # Time in different power states
system.mem_ctrls.dram.rank1.actEnergy       854115360                       # Energy for activate commands per rank (pJ)
system.mem_ctrls.dram.rank1.preEnergy       453969285                       # Energy for precharge commands per rank (pJ)
system.mem_ctrls.dram.rank1.readEnergy      751463580                       # Energy for read commands per rank (pJ)
system.mem_ctrls.dram.rank1.writeEnergy     519118560                       # Energy for write commands per rank (pJ)
system.mem_ctrls.dram.rank1.refreshEnergy 3258821280.000000                       # Energy for refresh commands per rank (pJ)
system.mem_ctrls.dram.rank1.actBackEnergy  17854185810                       # Energy for active background per rank (pJ)
system.mem_ctrls.dram.rank1.preBackEnergy    819014400                       # Energy for precharge background per rank (pJ)
system.mem_ctrls.dram.rank1.actPowerDownEnergy            0                       # Energy for active power-down per rank (pJ)
system.mem_ctrls.dram.rank1.prePowerDownEnergy            0                       # Energy for precharge power-down per rank (pJ)
system.mem_ctrls.dram.rank1.selfRefreshEnergy            0                       # Energy for self refresh per rank (pJ)
system.mem_ctrls.dram.rank1.totalEnergy   24510688275                       # Total energy per rank (pJ)
system.mem_ctrls.dram.rank1.averagePower   593.669375                       # Core power per rank (mW)
system.mem_ctrls.dram.rank1.totalIdleTime            0                       # Total Idle time Per DRAM Rank
system.mem_ctrls.dram.rank1.pwrStateTime::IDLE   1978818250                       # Time in different power states
system.mem_ctrls.dram.rank1.pwrStateTime::REF   1378520000                       # Time in different power states
system.mem_ctrls.dram.rank1.pwrStateTime::SREF            0                       # Time in different power states
system.mem_ctrls.dram.rank1.pwrStateTime::PRE_PDN            0                       # Time in different power states
system.mem_ctrls.dram.rank1.pwrStateTime::ACT  37929427250                       # Time in different power states
system.mem_ctrls.dram.rank1.pwrStateTime::ACT_PDN            0                       # Time in different power states
system.mem_ctrls.power_state.pwrStateResidencyTicks::UNDEFINED  41286765500                       # Cumulative time (in ticks) in various power states
system.membus.trans_dist::ReadResp              49392                       # Transaction distribution
system.membus.trans_dist::WritebackDirty       198751                       # Transaction distribution
system.membus.trans_dist::CleanEvict             3034                       # Transaction distribution
system.membus.trans_dist::ReadExReq            161115                       # Transaction distribution
system.membus.trans_dist::ReadExResp           161115                       # Transaction distribution
system.membus.trans_dist::ReadSharedReq         49392                       # Transaction distribution
system.membus.pkt_count_system.l2.mem_side_port::system.mem_ctrls.port       622799                       # Packet count per connected requestor and responder (bytes)
system.membus.pkt_count_system.l2.mem_side_port::total       622799                       # Packet count per connected requestor and responder (bytes)
system.membus.pkt_count::total                 622799                       # Packet count per connected requestor and responder (bytes)
system.membus.pkt_size_system.l2.mem_side_port::system.mem_ctrls.port     26192512                       # Cumulative packet size per connected requestor and responder (bytes)
system.membus.pkt_size_system.l2.mem_side_port::total     26192512                       # Cumulative packet size per connected requestor and responder (bytes)
system.membus.pkt_size::total                26192512                       # Cumulative packet size per connected requestor and responder (bytes)
system.membus.snoops                                0                       # Total snoops (count)
system.membus.snoopTraffic                          0                       # Total snoop traffic (bytes)
system.membus.snoop_fanout::samples            210507                       # Request fanout histogram
system.membus.snoop_fanout::mean                    0                       # Request fanout histogram
system.membus.snoop_fanout::stdev                   0                       # Request fanout histogram
system.membus.snoop_fanout::underflows              0      0.00%      0.00% # Request fanout histogram
system.membus.snoop_fanout::0                  210507    100.00%    100.00% # Request fanout histogram
system.membus.snoop_fanout::1                       0      0.00%    100.00% # Request fanout histogram
system.membus.snoop_fanout::overflows               0      0.00%    100.00% # Request fanout histogram
system.membus.snoop_fanout::min_value               0                       # Request fanout histogram
system.membus.snoop_fanout::max_value               0                       # Request fanout histogram
system.membus.snoop_fanout::total              210507                       # Request fanout histogram
system.membus.power_state.pwrStateResidencyTicks::UNDEFINED  41286765500                       # Cumulative time (in ticks) in various power states
system.membus.reqLayer2.occupancy           301824000                       # Layer occupancy (ticks)
system.membus.reqLayer2.utilization               0.7                       # Layer utilization (%)
system.membus.respLayer1.occupancy          263133750                       # Layer occupancy (ticks)
system.membus.respLayer1.utilization              0.6                       # Layer utilization (%)
system.tol2bus.trans_dist::ReadResp            223854                       # Transaction distribution
system.tol2bus.trans_dist::WritebackDirty       441672                       # Transaction distribution
system.tol2bus.trans_dist::WritebackClean       145396                       # Transaction distribution
system.tol2bus.trans_dist::CleanEvict           19146                       # Transaction distribution
system.tol2bus.trans_dist::UpgradeReq               3                       # Transaction distribution
system.tol2bus.trans_dist::UpgradeResp              3                       # Transaction distribution
system.tol2bus.trans_dist::ReadExReq           180740                       # Transaction distribution
system.tol2bus.trans_dist::ReadExResp          180740                       # Transaction distribution
system.tol2bus.trans_dist::ReadCleanReq        145905                       # Transaction distribution
system.tol2bus.trans_dist::ReadSharedReq        77949                       # Transaction distribution
system.tol2bus.pkt_count_system.cpu.icache.mem_side_port::system.l2.cpu_side_port       437203                       # Packet count per connected requestor and responder (bytes)
system.tol2bus.pkt_count_system.cpu.dcache.mem_side_port::system.l2.cpu_side_port       775561                       # Packet count per connected requestor and responder (bytes)
system.tol2bus.pkt_count::total               1212764                       # Packet count per connected requestor and responder (bytes)
system.tol2bus.pkt_size_system.cpu.icache.mem_side_port::system.l2.cpu_side_port     18643072                       # Cumulative packet size per connected requestor and responder (bytes)
system.tol2bus.pkt_size_system.cpu.dcache.mem_side_port::system.l2.cpu_side_port     32103040                       # Cumulative packet size per connected requestor and responder (bytes)
system.tol2bus.pkt_size::total               50746112                       # Cumulative packet size per connected requestor and responder (bytes)
system.tol2bus.snoops                          202644                       # Total snoops (count)
system.tol2bus.snoopTraffic                  12720256                       # Total snoop traffic (bytes)
system.tol2bus.snoop_fanout::samples           607238                       # Request fanout histogram
system.tol2bus.snoop_fanout::mean            0.001680                       # Request fanout histogram
system.tol2bus.snoop_fanout::stdev           0.041786                       # Request fanout histogram
system.tol2bus.snoop_fanout::underflows             0      0.00%      0.00% # Request fanout histogram
system.tol2bus.snoop_fanout::0                 606239     99.84%     99.84% # Request fanout histogram
system.tol2bus.snoop_fanout::1                    978      0.16%    100.00% # Request fanout histogram
system.tol2bus.snoop_fanout::2                     21      0.00%    100.00% # Request fanout histogram
system.tol2bus.snoop_fanout::3                      0      0.00%    100.00% # Request fanout histogram
system.tol2bus.snoop_fanout::4                      0      0.00%    100.00% # Request fanout histogram
system.tol2bus.snoop_fanout::overflows              0      0.00%    100.00% # Request fanout histogram
system.tol2bus.snoop_fanout::min_value              0                       # Request fanout histogram
system.tol2bus.snoop_fanout::max_value              2                       # Request fanout histogram
system.tol2bus.snoop_fanout::total             607238                       # Request fanout histogram
system.tol2bus.power_state.pwrStateResidencyTicks::UNDEFINED  41286765500                       # Cumulative time (in ticks) in various power states
system.tol2bus.reqLayer0.occupancy          792402000                       # Layer occupancy (ticks)
system.tol2bus.reqLayer0.utilization              1.9                       # Layer utilization (%)
system.tol2bus.respLayer0.occupancy         218863488                       # Layer occupancy (ticks)
system.tol2bus.respLayer0.utilization             0.5                       # Layer utilization (%)
system.tol2bus.respLayer1.occupancy         388035000                       # Layer occupancy (ticks)
system.tol2bus.respLayer1.utilization             0.9                       # Layer utilization (%)
system.voltage_domain.voltage                       1                       # Voltage in Volts

---------- End Simulation Statistics   ----------
