
---------- Begin Simulation Statistics ----------
final_tick                                32271064500                       # Number of ticks from beginning of simulation (restored from checkpoints and never reset)
host_inst_rate                                  94988                       # Simulator instruction rate (inst/s)
host_mem_usage                                 724096                       # Number of bytes of host memory used
host_op_rate                                   147353                       # Simulator op (including micro ops) rate (op/s)
host_seconds                                  1052.76                       # Real time elapsed on the host
host_tick_rate                               30653626                       # Simulator tick rate (ticks/s)
sim_freq                                 1000000000000                       # Frequency of simulated ticks
sim_insts                                   100000000                       # Number of instructions simulated
sim_ops                                     155128130                       # Number of ops (including micro ops) simulated
sim_seconds                                  0.032271                       # Number of seconds simulated
sim_ticks                                 32271064500                       # Number of ticks simulated
system.cpu.cc_regfile_reads                  87468062                       # number of cc regfile reads
system.cpu.cc_regfile_writes                 85212868                       # number of cc regfile writes
system.cpu.committedInsts                   100000000                       # Number of Instructions Simulated
system.cpu.committedOps                     155128130                       # Number of Ops (including micro ops) Simulated
system.cpu.cpi                               0.645421                       # CPI: Cycles Per Instruction
system.cpu.cpi_total                         0.645421                       # CPI: Total CPI of All Threads
system.cpu.fp_regfile_reads                   7505292                       # number of floating regfile reads
system.cpu.fp_regfile_writes                  5750915                       # number of floating regfile writes
system.cpu.idleCycles                          133704                       # Total number of cycles that the CPU has spent unscheduled due to idling
system.cpu.iew.branchMispredicts               547353                       # Number of branch mispredicts detected at execute
system.cpu.iew.exec_branches                 11989595                       # Number of branches executed
system.cpu.iew.exec_nop                             0                       # number of nop insts executed
system.cpu.iew.exec_rate                     2.665335                       # Inst execution rate
system.cpu.iew.exec_refs                     45782688                       # number of memory reference insts executed
system.cpu.iew.exec_stores                   13743968                       # Number of stores executed
system.cpu.iew.exec_swp                             0                       # number of swp insts executed
system.cpu.iew.iewBlockCycles                 4188125                       # Number of cycles IEW is blocking
system.cpu.iew.iewDispLoadInsts              34697560                       # Number of dispatched load instructions
system.cpu.iew.iewDispNonSpecInsts                939                       # Number of dispatched non-speculative instructions
system.cpu.iew.iewDispSquashedInsts              2410                       # Number of squashed instructions skipped by dispatch
system.cpu.iew.iewDispStoreInsts             13987432                       # Number of dispatched store instructions
system.cpu.iew.iewDispatchedInsts           184903380                       # Number of instructions dispatched to IQ
system.cpu.iew.iewExecLoadInsts              32038720                       # Number of load instructions executed
system.cpu.iew.iewExecSquashedInsts           1326509                       # Number of squashed instructions skipped in execute
system.cpu.iew.iewExecutedInsts             172026394                       # Number of executed instructions
system.cpu.iew.iewIQFullEvents                  10747                       # Number of times the IQ has become full, causing a stall
system.cpu.iew.iewIdleCycles                        0                       # Number of cycles IEW is idle
system.cpu.iew.iewLSQFullEvents               2325522                       # Number of times the LSQ has become full, causing a stall
system.cpu.iew.iewSquashCycles                 481395                       # Number of cycles IEW is squashing
system.cpu.iew.iewUnblockCycles               2339987                       # Number of cycles IEW is unblocking
system.cpu.iew.memOrderViolationEvents           1918                       # Number of memory order violations
system.cpu.iew.predictedNotTakenIncorrect       287057                       # Number of branches that were predicted not taken incorrectly
system.cpu.iew.predictedTakenIncorrect         260296                       # Number of branches that were predicted taken incorrectly
system.cpu.iew.wb_consumers                 229034334                       # num instructions consuming a value
system.cpu.iew.wb_count                     170911497                       # cumulative count of insts written-back
system.cpu.iew.wb_fanout                     0.560920                       # average fanout of values written-back
system.cpu.iew.wb_producers                 128470020                       # num instructions producing a value
system.cpu.iew.wb_rate                       2.648061                       # insts written-back per cycle
system.cpu.iew.wb_sent                      171381286                       # cumulative count of insts sent to commit
system.cpu.int_regfile_reads                290160738                       # number of integer regfile reads
system.cpu.int_regfile_writes               137931834                       # number of integer regfile writes
system.cpu.ipc                               1.549376                       # IPC: Instructions Per Cycle
system.cpu.ipc_total                         1.549376                       # IPC: Total IPC of All Threads
system.cpu.iq.FU_type_0::No_OpClass           2084662      1.20%      1.20% # Type of FU issued
system.cpu.iq.FU_type_0::IntAlu             119954028     69.20%     70.40% # Type of FU issued
system.cpu.iq.FU_type_0::IntMult                   48      0.00%     70.40% # Type of FU issued
system.cpu.iq.FU_type_0::IntDiv                 43856      0.03%     70.42% # Type of FU issued
system.cpu.iq.FU_type_0::FloatAdd             1677308      0.97%     71.39% # Type of FU issued
system.cpu.iq.FU_type_0::FloatCmp                   0      0.00%     71.39% # Type of FU issued
system.cpu.iq.FU_type_0::FloatCvt                1393      0.00%     71.39% # Type of FU issued
system.cpu.iq.FU_type_0::FloatMult                  0      0.00%     71.39% # Type of FU issued
system.cpu.iq.FU_type_0::FloatMultAcc               0      0.00%     71.39% # Type of FU issued
system.cpu.iq.FU_type_0::FloatDiv                   0      0.00%     71.39% # Type of FU issued
system.cpu.iq.FU_type_0::FloatMisc                  0      0.00%     71.39% # Type of FU issued
system.cpu.iq.FU_type_0::FloatSqrt                  0      0.00%     71.39% # Type of FU issued
system.cpu.iq.FU_type_0::SimdAdd                 9067      0.01%     71.40% # Type of FU issued
system.cpu.iq.FU_type_0::SimdAddAcc                 0      0.00%     71.40% # Type of FU issued
system.cpu.iq.FU_type_0::SimdAlu               128168      0.07%     71.47% # Type of FU issued
system.cpu.iq.FU_type_0::SimdCmp                    6      0.00%     71.47% # Type of FU issued
system.cpu.iq.FU_type_0::SimdCvt                20078      0.01%     71.48% # Type of FU issued
system.cpu.iq.FU_type_0::SimdMisc             3357503      1.94%     73.42% # Type of FU issued
system.cpu.iq.FU_type_0::SimdMult                   0      0.00%     73.42% # Type of FU issued
system.cpu.iq.FU_type_0::SimdMultAcc                0      0.00%     73.42% # Type of FU issued
system.cpu.iq.FU_type_0::SimdShift               5107      0.00%     73.42% # Type of FU issued
system.cpu.iq.FU_type_0::SimdShiftAcc               0      0.00%     73.42% # Type of FU issued
system.cpu.iq.FU_type_0::SimdDiv                    0      0.00%     73.42% # Type of FU issued
system.cpu.iq.FU_type_0::SimdSqrt                   0      0.00%     73.42% # Type of FU issued
system.cpu.iq.FU_type_0::SimdFloatAdd               0      0.00%     73.42% # Type of FU issued
system.cpu.iq.FU_type_0::SimdFloatAlu               0      0.00%     73.42% # Type of FU issued
system.cpu.iq.FU_type_0::SimdFloatCmp               0      0.00%     73.42% # Type of FU issued
system.cpu.iq.FU_type_0::SimdFloatCvt           47144      0.03%     73.45% # Type of FU issued
system.cpu.iq.FU_type_0::SimdFloatDiv               0      0.00%     73.45% # Type of FU issued
system.cpu.iq.FU_type_0::SimdFloatMisc              0      0.00%     73.45% # Type of FU issued
system.cpu.iq.FU_type_0::SimdFloatMult          23789      0.01%     73.46% # Type of FU issued
system.cpu.iq.FU_type_0::SimdFloatMultAcc            0      0.00%     73.46% # Type of FU issued
system.cpu.iq.FU_type_0::SimdFloatSqrt              0      0.00%     73.46% # Type of FU issued
system.cpu.iq.FU_type_0::SimdReduceAdd              0      0.00%     73.46% # Type of FU issued
system.cpu.iq.FU_type_0::SimdReduceAlu              0      0.00%     73.46% # Type of FU issued
system.cpu.iq.FU_type_0::SimdReduceCmp              0      0.00%     73.46% # Type of FU issued
system.cpu.iq.FU_type_0::SimdFloatReduceAdd            0      0.00%     73.46% # Type of FU issued
system.cpu.iq.FU_type_0::SimdFloatReduceCmp            0      0.00%     73.46% # Type of FU issued
system.cpu.iq.FU_type_0::SimdAes                    0      0.00%     73.46% # Type of FU issued
system.cpu.iq.FU_type_0::SimdAesMix                 0      0.00%     73.46% # Type of FU issued
system.cpu.iq.FU_type_0::SimdSha1Hash               0      0.00%     73.46% # Type of FU issued
system.cpu.iq.FU_type_0::SimdSha1Hash2              0      0.00%     73.46% # Type of FU issued
system.cpu.iq.FU_type_0::SimdSha256Hash             0      0.00%     73.46% # Type of FU issued
system.cpu.iq.FU_type_0::SimdSha256Hash2            0      0.00%     73.46% # Type of FU issued
system.cpu.iq.FU_type_0::SimdShaSigma2              0      0.00%     73.46% # Type of FU issued
system.cpu.iq.FU_type_0::SimdShaSigma3              0      0.00%     73.46% # Type of FU issued
system.cpu.iq.FU_type_0::SimdPredAlu                0      0.00%     73.46% # Type of FU issued
system.cpu.iq.FU_type_0::MemRead             32090879     18.51%     91.98% # Type of FU issued
system.cpu.iq.FU_type_0::MemWrite            12662155      7.30%     99.28% # Type of FU issued
system.cpu.iq.FU_type_0::FloatMemRead          113353      0.07%     99.35% # Type of FU issued
system.cpu.iq.FU_type_0::FloatMemWrite        1134360      0.65%    100.00% # Type of FU issued
system.cpu.iq.FU_type_0::IprAccess                  0      0.00%    100.00% # Type of FU issued
system.cpu.iq.FU_type_0::InstPrefetch               0      0.00%    100.00% # Type of FU issued
system.cpu.iq.FU_type_0::total              173352904                       # Type of FU issued
system.cpu.iq.fp_alu_accesses                 7353242                       # Number of floating point alu accesses
system.cpu.iq.fp_inst_queue_reads            14291771                       # Number of floating instruction queue reads
system.cpu.iq.fp_inst_queue_wakeup_accesses      6885788                       # Number of floating instruction queue wakeup accesses
system.cpu.iq.fp_inst_queue_writes            7463108                       # Number of floating instruction queue writes
system.cpu.iq.fu_busy_cnt                     2896492                       # FU busy when requested
system.cpu.iq.fu_busy_rate                   0.016709                       # FU busy rate (busy events/executed inst)
system.cpu.iq.fu_full::No_OpClass                   0      0.00%      0.00% # attempts to use FU when none available
system.cpu.iq.fu_full::IntAlu                 1201210     41.47%     41.47% # attempts to use FU when none available
system.cpu.iq.fu_full::IntMult                      0      0.00%     41.47% # attempts to use FU when none available
system.cpu.iq.fu_full::IntDiv                       0      0.00%     41.47% # attempts to use FU when none available
system.cpu.iq.fu_full::FloatAdd                     0      0.00%     41.47% # attempts to use FU when none available
system.cpu.iq.fu_full::FloatCmp                     0      0.00%     41.47% # attempts to use FU when none available
system.cpu.iq.fu_full::FloatCvt                     0      0.00%     41.47% # attempts to use FU when none available
system.cpu.iq.fu_full::FloatMult                    0      0.00%     41.47% # attempts to use FU when none available
system.cpu.iq.fu_full::FloatMultAcc                 0      0.00%     41.47% # attempts to use FU when none available
system.cpu.iq.fu_full::FloatDiv                     0      0.00%     41.47% # attempts to use FU when none available
system.cpu.iq.fu_full::FloatMisc                    0      0.00%     41.47% # attempts to use FU when none available
system.cpu.iq.fu_full::FloatSqrt                    0      0.00%     41.47% # attempts to use FU when none available
system.cpu.iq.fu_full::SimdAdd                      0      0.00%     41.47% # attempts to use FU when none available
system.cpu.iq.fu_full::SimdAddAcc                   0      0.00%     41.47% # attempts to use FU when none available
system.cpu.iq.fu_full::SimdAlu                    162      0.01%     41.48% # attempts to use FU when none available
system.cpu.iq.fu_full::SimdCmp                      0      0.00%     41.48% # attempts to use FU when none available
system.cpu.iq.fu_full::SimdCvt                   1052      0.04%     41.51% # attempts to use FU when none available
system.cpu.iq.fu_full::SimdMisc                412330     14.24%     55.75% # attempts to use FU when none available
system.cpu.iq.fu_full::SimdMult                     0      0.00%     55.75% # attempts to use FU when none available
system.cpu.iq.fu_full::SimdMultAcc                  0      0.00%     55.75% # attempts to use FU when none available
system.cpu.iq.fu_full::SimdShift                   69      0.00%     55.75% # attempts to use FU when none available
system.cpu.iq.fu_full::SimdShiftAcc                 0      0.00%     55.75% # attempts to use FU when none available
system.cpu.iq.fu_full::SimdDiv                      0      0.00%     55.75% # attempts to use FU when none available
system.cpu.iq.fu_full::SimdSqrt                     0      0.00%     55.75% # attempts to use FU when none available
system.cpu.iq.fu_full::SimdFloatAdd                 0      0.00%     55.75% # attempts to use FU when none available
system.cpu.iq.fu_full::SimdFloatAlu                 0      0.00%     55.75% # attempts to use FU when none available
system.cpu.iq.fu_full::SimdFloatCmp                 0      0.00%     55.75% # attempts to use FU when none available
system.cpu.iq.fu_full::SimdFloatCvt                 0      0.00%     55.75% # attempts to use FU when none available
system.cpu.iq.fu_full::SimdFloatDiv                 0      0.00%     55.75% # attempts to use FU when none available
system.cpu.iq.fu_full::SimdFloatMisc                0      0.00%     55.75% # attempts to use FU when none available
system.cpu.iq.fu_full::SimdFloatMult                0      0.00%     55.75% # attempts to use FU when none available
system.cpu.iq.fu_full::SimdFloatMultAcc             0      0.00%     55.75% # attempts to use FU when none available
system.cpu.iq.fu_full::SimdFloatSqrt                0      0.00%     55.75% # attempts to use FU when none available
system.cpu.iq.fu_full::SimdReduceAdd                0      0.00%     55.75% # attempts to use FU when none available
system.cpu.iq.fu_full::SimdReduceAlu                0      0.00%     55.75% # attempts to use FU when none available
system.cpu.iq.fu_full::SimdReduceCmp                0      0.00%     55.75% # attempts to use FU when none available
system.cpu.iq.fu_full::SimdFloatReduceAdd            0      0.00%     55.75% # attempts to use FU when none available
system.cpu.iq.fu_full::SimdFloatReduceCmp            0      0.00%     55.75% # attempts to use FU when none available
system.cpu.iq.fu_full::SimdAes                      0      0.00%     55.75% # attempts to use FU when none available
system.cpu.iq.fu_full::SimdAesMix                   0      0.00%     55.75% # attempts to use FU when none available
system.cpu.iq.fu_full::SimdSha1Hash                 0      0.00%     55.75% # attempts to use FU when none available
system.cpu.iq.fu_full::SimdSha1Hash2                0      0.00%     55.75% # attempts to use FU when none available
system.cpu.iq.fu_full::SimdSha256Hash               0      0.00%     55.75% # attempts to use FU when none available
system.cpu.iq.fu_full::SimdSha256Hash2              0      0.00%     55.75% # attempts to use FU when none available
system.cpu.iq.fu_full::SimdShaSigma2                0      0.00%     55.75% # attempts to use FU when none available
system.cpu.iq.fu_full::SimdShaSigma3                0      0.00%     55.75% # attempts to use FU when none available
system.cpu.iq.fu_full::SimdPredAlu                  0      0.00%     55.75% # attempts to use FU when none available
system.cpu.iq.fu_full::MemRead                1271060     43.88%     99.63% # attempts to use FU when none available
system.cpu.iq.fu_full::MemWrite                  9082      0.31%     99.95% # attempts to use FU when none available
system.cpu.iq.fu_full::FloatMemRead               657      0.02%     99.97% # attempts to use FU when none available
system.cpu.iq.fu_full::FloatMemWrite              870      0.03%    100.00% # attempts to use FU when none available
system.cpu.iq.fu_full::IprAccess                    0      0.00%    100.00% # attempts to use FU when none available
system.cpu.iq.fu_full::InstPrefetch                 0      0.00%    100.00% # attempts to use FU when none available
system.cpu.iq.int_alu_accesses              166811492                       # Number of integer alu accesses
system.cpu.iq.int_inst_queue_reads          399824549                       # Number of integer instruction queue reads
system.cpu.iq.int_inst_queue_wakeup_accesses    164025709                       # Number of integer instruction queue wakeup accesses
system.cpu.iq.int_inst_queue_writes         207217351                       # Number of integer instruction queue writes
system.cpu.iq.iqInstsAdded                  184901977                       # Number of instructions added to the IQ (excludes non-spec)
system.cpu.iq.iqInstsIssued                 173352904                       # Number of instructions issued
system.cpu.iq.iqNonSpecInstsAdded                1403                       # Number of non-speculative instructions added to the IQ
system.cpu.iq.iqSquashedInstsExamined        29775174                       # Number of squashed instructions iterated over during squash; mainly for profiling
system.cpu.iq.iqSquashedInstsIssued            105595                       # Number of squashed instructions issued
system.cpu.iq.iqSquashedNonSpecRemoved            200                       # Number of squashed non-spec instructions that were removed
system.cpu.iq.iqSquashedOperandsExamined     54558176                       # Number of squashed operands that are examined and possibly removed from graph
system.cpu.iq.issued_per_cycle::samples      64408426                       # Number of insts issued each cycle
system.cpu.iq.issued_per_cycle::mean         2.691463                       # Number of insts issued each cycle
system.cpu.iq.issued_per_cycle::stdev        2.202344                       # Number of insts issued each cycle
system.cpu.iq.issued_per_cycle::underflows            0      0.00%      0.00% # Number of insts issued each cycle
system.cpu.iq.issued_per_cycle::0            13029916     20.23%     20.23% # Number of insts issued each cycle
system.cpu.iq.issued_per_cycle::1             9784334     15.19%     35.42% # Number of insts issued each cycle
system.cpu.iq.issued_per_cycle::2            10644176     16.53%     51.95% # Number of insts issued each cycle
system.cpu.iq.issued_per_cycle::3            10658349     16.55%     68.50% # Number of insts issued each cycle
system.cpu.iq.issued_per_cycle::4             5753348      8.93%     77.43% # Number of insts issued each cycle
system.cpu.iq.issued_per_cycle::5             5336497      8.29%     85.71% # Number of insts issued each cycle
system.cpu.iq.issued_per_cycle::6             5691902      8.84%     94.55% # Number of insts issued each cycle
system.cpu.iq.issued_per_cycle::7             1621350      2.52%     97.07% # Number of insts issued each cycle
system.cpu.iq.issued_per_cycle::8             1888554      2.93%    100.00% # Number of insts issued each cycle
system.cpu.iq.issued_per_cycle::overflows            0      0.00%    100.00% # Number of insts issued each cycle
system.cpu.iq.issued_per_cycle::min_value            0                       # Number of insts issued each cycle
system.cpu.iq.issued_per_cycle::max_value            8                       # Number of insts issued each cycle
system.cpu.iq.issued_per_cycle::total        64408426                       # Number of insts issued each cycle
system.cpu.iq.rate                           2.685888                       # Inst issue rate
system.cpu.iq.vec_alu_accesses                      0                       # Number of vector alu accesses
system.cpu.iq.vec_inst_queue_reads                  0                       # Number of vector instruction queue reads
system.cpu.iq.vec_inst_queue_wakeup_accesses            0                       # Number of vector instruction queue wakeup accesses
system.cpu.iq.vec_inst_queue_writes                 0                       # Number of vector instruction queue writes
system.cpu.memDep0.conflictingLoads           2940912                       # Number of conflicting loads.
system.cpu.memDep0.conflictingStores          1035373                       # Number of conflicting stores.
system.cpu.memDep0.insertedLoads             34697560                       # Number of loads inserted to the mem dependence unit.
system.cpu.memDep0.insertedStores            13987432                       # Number of stores inserted to the mem dependence unit.
system.cpu.misc_regfile_reads                71172501                       # number of misc regfile reads
system.cpu.misc_regfile_writes                    702                       # number of misc regfile writes
system.cpu.numCycles                         64542130                       # number of cpu cycles simulated
system.cpu.numWorkItemsCompleted                    0                       # number of work items this cpu completed
system.cpu.numWorkItemsStarted                      0                       # number of work items this cpu started
system.cpu.timesIdled                            1490                       # Number of times that the entire CPU went into an idle state and unscheduled itself
system.cpu.workload.numSyscalls                    85                       # Number of system calls
system.membus.snoop_filter.hit_multi_requests            0                       # Number of requests hitting in the snoop filter with multiple (>1) holders of the requested data.
system.membus.snoop_filter.hit_multi_snoops            0                       # Number of snoops hitting in the snoop filter with multiple (>1) holders of the requested data.
system.membus.snoop_filter.hit_single_requests        41395                       # Number of requests hitting in the snoop filter with a single holder of the requested data.
system.membus.snoop_filter.hit_single_snoops            0                       # Number of snoops hitting in the snoop filter with a single holder of the requested data.
system.membus.snoop_filter.tot_requests         91423                       # Total number of requests made to the snoop filter.
system.membus.snoop_filter.tot_snoops               0                       # Total number of snoops made to the snoop filter.
system.tol2bus.snoop_filter.hit_multi_requests           30                       # Number of requests hitting in the snoop filter with multiple (>1) holders of the requested data.
system.tol2bus.snoop_filter.hit_multi_snoops            0                       # Number of snoops hitting in the snoop filter with multiple (>1) holders of the requested data.
system.tol2bus.snoop_filter.hit_single_requests        92687                       # Number of requests hitting in the snoop filter with a single holder of the requested data.
system.tol2bus.snoop_filter.hit_single_snoops          898                       # Number of snoops hitting in the snoop filter with a single holder of the requested data.
system.tol2bus.snoop_filter.tot_requests       186396                       # Total number of requests made to the snoop filter.
system.tol2bus.snoop_filter.tot_snoops            898                       # Total number of snoops made to the snoop filter.
system.clk_domain.clock                           250                       # Clock period in ticks
system.cpu.branchPred.lookups                17719275                       # Number of BP lookups
system.cpu.branchPred.condPredicted          12872608                       # Number of conditional branches predicted
system.cpu.branchPred.condIncorrect            480013                       # Number of conditional branches incorrect
system.cpu.branchPred.BTBLookups              8956778                       # Number of BTB lookups
system.cpu.branchPred.BTBHits                 8945940                       # Number of BTB hits
system.cpu.branchPred.BTBHitPct             99.878997                       # BTB Hit Percentage
system.cpu.branchPred.RASUsed                 2153215                       # Number of times the RAS was used to get a target.
system.cpu.branchPred.RASIncorrect                 15                       # Number of incorrect RAS predictions.
system.cpu.branchPred.indirectLookups           22721                       # Number of indirect predictor lookups.
system.cpu.branchPred.indirectHits              11508                       # Number of indirect target hits.
system.cpu.branchPred.indirectMisses            11213                       # Number of indirect misses.
system.cpu.branchPred.indirectMispredicted         1986                       # Number of mispredicted indirect branches.
system.cpu.commit.commitSquashedInsts        29768975                       # The number of squashed insts skipped by commit
system.cpu.commit.commitNonSpecStalls            1203                       # The number of times commit has been forced to stall to communicate backwards
system.cpu.commit.branchMispredicts            479129                       # The number of times a branch was mispredicted
system.cpu.commit.numCommittedDist::samples     60420637                       # Number of insts commited each cycle
system.cpu.commit.numCommittedDist::mean     2.567469                       # Number of insts commited each cycle
system.cpu.commit.numCommittedDist::stdev     2.512581                       # Number of insts commited each cycle
system.cpu.commit.numCommittedDist::underflows            0      0.00%      0.00% # Number of insts commited each cycle
system.cpu.commit.numCommittedDist::0        12010455     19.88%     19.88% # Number of insts commited each cycle
system.cpu.commit.numCommittedDist::1        14275268     23.63%     43.50% # Number of insts commited each cycle
system.cpu.commit.numCommittedDist::2        12680485     20.99%     64.49% # Number of insts commited each cycle
system.cpu.commit.numCommittedDist::3         7000897     11.59%     76.08% # Number of insts commited each cycle
system.cpu.commit.numCommittedDist::4         1452240      2.40%     78.48% # Number of insts commited each cycle
system.cpu.commit.numCommittedDist::5         3949304      6.54%     85.02% # Number of insts commited each cycle
system.cpu.commit.numCommittedDist::6         1328859      2.20%     87.22% # Number of insts commited each cycle
system.cpu.commit.numCommittedDist::7          824465      1.36%     88.58% # Number of insts commited each cycle
system.cpu.commit.numCommittedDist::8         6898664     11.42%    100.00% # Number of insts commited each cycle
system.cpu.commit.numCommittedDist::overflows            0      0.00%    100.00% # Number of insts commited each cycle
system.cpu.commit.numCommittedDist::min_value            0                       # Number of insts commited each cycle
system.cpu.commit.numCommittedDist::max_value            8                       # Number of insts commited each cycle
system.cpu.commit.numCommittedDist::total     60420637                       # Number of insts commited each cycle
system.cpu.commit.instsCommitted            100000000                       # Number of instructions committed
system.cpu.commit.opsCommitted              155128130                       # Number of ops (including micro ops) committed
system.cpu.commit.memRefs                    42889622                       # Number of memory references committed
system.cpu.commit.loads                      29551957                       # Number of loads committed
system.cpu.commit.amos                              0                       # Number of atomic instructions committed
system.cpu.commit.membars                         334                       # Number of memory barriers committed
system.cpu.commit.branches                   10777716                       # Number of branches committed
system.cpu.commit.vector                            0                       # Number of committed Vector instructions.
system.cpu.commit.floating                    6695446                       # Number of committed floating point instructions.
system.cpu.commit.integer                   149356127                       # Number of committed integer instructions.
system.cpu.commit.functionCalls               1895863                       # Number of function calls committed.
system.cpu.commit.committedInstType_0::No_OpClass      1916377      1.24%      1.24% # Class of committed instruction
system.cpu.commit.committedInstType_0::IntAlu    105159033     67.79%     69.02% # Class of committed instruction
system.cpu.commit.committedInstType_0::IntMult           38      0.00%     69.02% # Class of committed instruction
system.cpu.commit.committedInstType_0::IntDiv        40525      0.03%     69.05% # Class of committed instruction
system.cpu.commit.committedInstType_0::FloatAdd      1674103      1.08%     70.13% # Class of committed instruction
system.cpu.commit.committedInstType_0::FloatCmp            0      0.00%     70.13% # Class of committed instruction
system.cpu.commit.committedInstType_0::FloatCvt         1248      0.00%     70.13% # Class of committed instruction
system.cpu.commit.committedInstType_0::FloatMult            0      0.00%     70.13% # Class of committed instruction
system.cpu.commit.committedInstType_0::FloatMultAcc            0      0.00%     70.13% # Class of committed instruction
system.cpu.commit.committedInstType_0::FloatDiv            0      0.00%     70.13% # Class of committed instruction
system.cpu.commit.committedInstType_0::FloatMisc            0      0.00%     70.13% # Class of committed instruction
system.cpu.commit.committedInstType_0::FloatSqrt            0      0.00%     70.13% # Class of committed instruction
system.cpu.commit.committedInstType_0::SimdAdd         7936      0.01%     70.14% # Class of committed instruction
system.cpu.commit.committedInstType_0::SimdAddAcc            0      0.00%     70.14% # Class of committed instruction
system.cpu.commit.committedInstType_0::SimdAlu        35475      0.02%     70.16% # Class of committed instruction
system.cpu.commit.committedInstType_0::SimdCmp            6      0.00%     70.16% # Class of committed instruction
system.cpu.commit.committedInstType_0::SimdCvt        16320      0.01%     70.17% # Class of committed instruction
system.cpu.commit.committedInstType_0::SimdMisc      3353871      2.16%     72.33% # Class of committed instruction
system.cpu.commit.committedInstType_0::SimdMult            0      0.00%     72.33% # Class of committed instruction
system.cpu.commit.committedInstType_0::SimdMultAcc            0      0.00%     72.33% # Class of committed instruction
system.cpu.commit.committedInstType_0::SimdShift         2037      0.00%     72.33% # Class of committed instruction
system.cpu.commit.committedInstType_0::SimdShiftAcc            0      0.00%     72.33% # Class of committed instruction
system.cpu.commit.committedInstType_0::SimdDiv            0      0.00%     72.33% # Class of committed instruction
system.cpu.commit.committedInstType_0::SimdSqrt            0      0.00%     72.33% # Class of committed instruction
system.cpu.commit.committedInstType_0::SimdFloatAdd            0      0.00%     72.33% # Class of committed instruction
system.cpu.commit.committedInstType_0::SimdFloatAlu            0      0.00%     72.33% # Class of committed instruction
system.cpu.commit.committedInstType_0::SimdFloatCmp            0      0.00%     72.33% # Class of committed instruction
system.cpu.commit.committedInstType_0::SimdFloatCvt        21026      0.01%     72.35% # Class of committed instruction
system.cpu.commit.committedInstType_0::SimdFloatDiv            0      0.00%     72.35% # Class of committed instruction
system.cpu.commit.committedInstType_0::SimdFloatMisc            0      0.00%     72.35% # Class of committed instruction
system.cpu.commit.committedInstType_0::SimdFloatMult        10513      0.01%     72.35% # Class of committed instruction
system.cpu.commit.committedInstType_0::SimdFloatMultAcc            0      0.00%     72.35% # Class of committed instruction
system.cpu.commit.committedInstType_0::SimdFloatSqrt            0      0.00%     72.35% # Class of committed instruction
system.cpu.commit.committedInstType_0::SimdReduceAdd            0      0.00%     72.35% # Class of committed instruction
system.cpu.commit.committedInstType_0::SimdReduceAlu            0      0.00%     72.35% # Class of committed instruction
system.cpu.commit.committedInstType_0::SimdReduceCmp            0      0.00%     72.35% # Class of committed instruction
system.cpu.commit.committedInstType_0::SimdFloatReduceAdd            0      0.00%     72.35% # Class of committed instruction
system.cpu.commit.committedInstType_0::SimdFloatReduceCmp            0      0.00%     72.35% # Class of committed instruction
system.cpu.commit.committedInstType_0::SimdAes            0      0.00%     72.35% # Class of committed instruction
system.cpu.commit.committedInstType_0::SimdAesMix            0      0.00%     72.35% # Class of committed instruction
system.cpu.commit.committedInstType_0::SimdSha1Hash            0      0.00%     72.35% # Class of committed instruction
system.cpu.commit.committedInstType_0::SimdSha1Hash2            0      0.00%     72.35% # Class of committed instruction
system.cpu.commit.committedInstType_0::SimdSha256Hash            0      0.00%     72.35% # Class of committed instruction
system.cpu.commit.committedInstType_0::SimdSha256Hash2            0      0.00%     72.35% # Class of committed instruction
system.cpu.commit.committedInstType_0::SimdShaSigma2            0      0.00%     72.35% # Class of committed instruction
system.cpu.commit.committedInstType_0::SimdShaSigma3            0      0.00%     72.35% # Class of committed instruction
system.cpu.commit.committedInstType_0::SimdPredAlu            0      0.00%     72.35% # Class of committed instruction
system.cpu.commit.committedInstType_0::MemRead     29509372     19.02%     91.37% # Class of committed instruction
system.cpu.commit.committedInstType_0::MemWrite     12227119      7.88%     99.26% # Class of committed instruction
system.cpu.commit.committedInstType_0::FloatMemRead        42585      0.03%     99.28% # Class of committed instruction
system.cpu.commit.committedInstType_0::FloatMemWrite      1110546      0.72%    100.00% # Class of committed instruction
system.cpu.commit.committedInstType_0::IprAccess            0      0.00%    100.00% # Class of committed instruction
system.cpu.commit.committedInstType_0::InstPrefetch            0      0.00%    100.00% # Class of committed instruction
system.cpu.commit.committedInstType_0::total    155128130                       # Class of committed instruction
system.cpu.commit.commitEligibleSamples       6898664                       # number cycles where commit BW limit reached
system.cpu.dcache.demand_hits::.cpu.data     34482109                       # number of demand (read+write) hits
system.cpu.dcache.demand_hits::total         34482109                       # number of demand (read+write) hits
system.cpu.dcache.overall_hits::.cpu.data     34482109                       # number of overall hits
system.cpu.dcache.overall_hits::total        34482109                       # number of overall hits
system.cpu.dcache.demand_misses::.cpu.data       163675                       # number of demand (read+write) misses
system.cpu.dcache.demand_misses::total         163675                       # number of demand (read+write) misses
system.cpu.dcache.overall_misses::.cpu.data       163675                       # number of overall misses
system.cpu.dcache.overall_misses::total        163675                       # number of overall misses
system.cpu.dcache.demand_miss_latency::.cpu.data   6678980495                       # number of demand (read+write) miss cycles
system.cpu.dcache.demand_miss_latency::total   6678980495                       # number of demand (read+write) miss cycles
system.cpu.dcache.overall_miss_latency::.cpu.data   6678980495                       # number of overall miss cycles
system.cpu.dcache.overall_miss_latency::total   6678980495                       # number of overall miss cycles
system.cpu.dcache.demand_accesses::.cpu.data     34645784                       # number of demand (read+write) accesses
system.cpu.dcache.demand_accesses::total     34645784                       # number of demand (read+write) accesses
system.cpu.dcache.overall_accesses::.cpu.data     34645784                       # number of overall (read+write) accesses
system.cpu.dcache.overall_accesses::total     34645784                       # number of overall (read+write) accesses
system.cpu.dcache.demand_miss_rate::.cpu.data     0.004724                       # miss rate for demand accesses
system.cpu.dcache.demand_miss_rate::total     0.004724                       # miss rate for demand accesses
system.cpu.dcache.overall_miss_rate::.cpu.data     0.004724                       # miss rate for overall accesses
system.cpu.dcache.overall_miss_rate::total     0.004724                       # miss rate for overall accesses
system.cpu.dcache.demand_avg_miss_latency::.cpu.data 40806.357080                       # average overall miss latency
system.cpu.dcache.demand_avg_miss_latency::total 40806.357080                       # average overall miss latency
system.cpu.dcache.overall_avg_miss_latency::.cpu.data 40806.357080                       # average overall miss latency
system.cpu.dcache.overall_avg_miss_latency::total 40806.357080                       # average overall miss latency
system.cpu.dcache.blocked_cycles::no_mshrs        28647                       # number of cycles access was blocked
system.cpu.dcache.blocked_cycles::no_targets          204                       # number of cycles access was blocked
system.cpu.dcache.blocked::no_mshrs               779                       # number of cycles access was blocked
system.cpu.dcache.blocked::no_targets              31                       # number of cycles access was blocked
system.cpu.dcache.avg_blocked_cycles::no_mshrs    36.774069                       # average number of cycles each access was blocked
system.cpu.dcache.avg_blocked_cycles::no_targets     6.580645                       # average number of cycles each access was blocked
system.cpu.dcache.writebacks::.writebacks        72603                       # number of writebacks
system.cpu.dcache.writebacks::total             72603                       # number of writebacks
system.cpu.dcache.demand_mshr_hits::.cpu.data        72530                       # number of demand (read+write) MSHR hits
system.cpu.dcache.demand_mshr_hits::total        72530                       # number of demand (read+write) MSHR hits
system.cpu.dcache.overall_mshr_hits::.cpu.data        72530                       # number of overall MSHR hits
system.cpu.dcache.overall_mshr_hits::total        72530                       # number of overall MSHR hits
system.cpu.dcache.demand_mshr_misses::.cpu.data        91145                       # number of demand (read+write) MSHR misses
system.cpu.dcache.demand_mshr_misses::total        91145                       # number of demand (read+write) MSHR misses
system.cpu.dcache.overall_mshr_misses::.cpu.data        91145                       # number of overall MSHR misses
system.cpu.dcache.overall_mshr_misses::total        91145                       # number of overall MSHR misses
system.cpu.dcache.demand_mshr_miss_latency::.cpu.data   4070267495                       # number of demand (read+write) MSHR miss cycles
system.cpu.dcache.demand_mshr_miss_latency::total   4070267495                       # number of demand (read+write) MSHR miss cycles
system.cpu.dcache.overall_mshr_miss_latency::.cpu.data   4070267495                       # number of overall MSHR miss cycles
system.cpu.dcache.overall_mshr_miss_latency::total   4070267495                       # number of overall MSHR miss cycles
system.cpu.dcache.demand_mshr_miss_rate::.cpu.data     0.002631                       # mshr miss rate for demand accesses
system.cpu.dcache.demand_mshr_miss_rate::total     0.002631                       # mshr miss rate for demand accesses
system.cpu.dcache.overall_mshr_miss_rate::.cpu.data     0.002631                       # mshr miss rate for overall accesses
system.cpu.dcache.overall_mshr_miss_rate::total     0.002631                       # mshr miss rate for overall accesses
system.cpu.dcache.demand_avg_mshr_miss_latency::.cpu.data 44657.057381                       # average overall mshr miss latency
system.cpu.dcache.demand_avg_mshr_miss_latency::total 44657.057381                       # average overall mshr miss latency
system.cpu.dcache.overall_avg_mshr_miss_latency::.cpu.data 44657.057381                       # average overall mshr miss latency
system.cpu.dcache.overall_avg_mshr_miss_latency::total 44657.057381                       # average overall mshr miss latency
system.cpu.dcache.replacements                  90633                       # number of replacements
system.cpu.dcache.ReadReq_hits::.cpu.data     21184899                       # number of ReadReq hits
system.cpu.dcache.ReadReq_hits::total        21184899                       # number of ReadReq hits
system.cpu.dcache.ReadReq_misses::.cpu.data       123211                       # number of ReadReq misses
system.cpu.dcache.ReadReq_misses::total        123211                       # number of ReadReq misses
system.cpu.dcache.ReadReq_miss_latency::.cpu.data   3764342000                       # number of ReadReq miss cycles
system.cpu.dcache.ReadReq_miss_latency::total   3764342000                       # number of ReadReq miss cycles
system.cpu.dcache.ReadReq_accesses::.cpu.data     21308110                       # number of ReadReq accesses(hits+misses)
system.cpu.dcache.ReadReq_accesses::total     21308110                       # number of ReadReq accesses(hits+misses)
system.cpu.dcache.ReadReq_miss_rate::.cpu.data     0.005782                       # miss rate for ReadReq accesses
system.cpu.dcache.ReadReq_miss_rate::total     0.005782                       # miss rate for ReadReq accesses
system.cpu.dcache.ReadReq_avg_miss_latency::.cpu.data 30551.996169                       # average ReadReq miss latency
system.cpu.dcache.ReadReq_avg_miss_latency::total 30551.996169                       # average ReadReq miss latency
system.cpu.dcache.ReadReq_mshr_hits::.cpu.data        72519                       # number of ReadReq MSHR hits
system.cpu.dcache.ReadReq_mshr_hits::total        72519                       # number of ReadReq MSHR hits
system.cpu.dcache.ReadReq_mshr_misses::.cpu.data        50692                       # number of ReadReq MSHR misses
system.cpu.dcache.ReadReq_mshr_misses::total        50692                       # number of ReadReq MSHR misses
system.cpu.dcache.ReadReq_mshr_miss_latency::.cpu.data   1196474000                       # number of ReadReq MSHR miss cycles
system.cpu.dcache.ReadReq_mshr_miss_latency::total   1196474000                       # number of ReadReq MSHR miss cycles
system.cpu.dcache.ReadReq_mshr_miss_rate::.cpu.data     0.002379                       # mshr miss rate for ReadReq accesses
system.cpu.dcache.ReadReq_mshr_miss_rate::total     0.002379                       # mshr miss rate for ReadReq accesses
system.cpu.dcache.ReadReq_avg_mshr_miss_latency::.cpu.data 23602.817013                       # average ReadReq mshr miss latency
system.cpu.dcache.ReadReq_avg_mshr_miss_latency::total 23602.817013                       # average ReadReq mshr miss latency
system.cpu.dcache.WriteReq_hits::.cpu.data     13297210                       # number of WriteReq hits
system.cpu.dcache.WriteReq_hits::total       13297210                       # number of WriteReq hits
system.cpu.dcache.WriteReq_misses::.cpu.data        40464                       # number of WriteReq misses
system.cpu.dcache.WriteReq_misses::total        40464                       # number of WriteReq misses
system.cpu.dcache.WriteReq_miss_latency::.cpu.data   2914638495                       # number of WriteReq miss cycles
system.cpu.dcache.WriteReq_miss_latency::total   2914638495                       # number of WriteReq miss cycles
system.cpu.dcache.WriteReq_accesses::.cpu.data     13337674                       # number of WriteReq accesses(hits+misses)
system.cpu.dcache.WriteReq_accesses::total     13337674                       # number of WriteReq accesses(hits+misses)
system.cpu.dcache.WriteReq_miss_rate::.cpu.data     0.003034                       # miss rate for WriteReq accesses
system.cpu.dcache.WriteReq_miss_rate::total     0.003034                       # miss rate for WriteReq accesses
system.cpu.dcache.WriteReq_avg_miss_latency::.cpu.data 72030.409623                       # average WriteReq miss latency
system.cpu.dcache.WriteReq_avg_miss_latency::total 72030.409623                       # average WriteReq miss latency
system.cpu.dcache.WriteReq_mshr_hits::.cpu.data           11                       # number of WriteReq MSHR hits
system.cpu.dcache.WriteReq_mshr_hits::total           11                       # number of WriteReq MSHR hits
system.cpu.dcache.WriteReq_mshr_misses::.cpu.data        40453                       # number of WriteReq MSHR misses
system.cpu.dcache.WriteReq_mshr_misses::total        40453                       # number of WriteReq MSHR misses
system.cpu.dcache.WriteReq_mshr_miss_latency::.cpu.data   2873793495                       # number of WriteReq MSHR miss cycles
system.cpu.dcache.WriteReq_mshr_miss_latency::total   2873793495                       # number of WriteReq MSHR miss cycles
system.cpu.dcache.WriteReq_mshr_miss_rate::.cpu.data     0.003033                       # mshr miss rate for WriteReq accesses
system.cpu.dcache.WriteReq_mshr_miss_rate::total     0.003033                       # mshr miss rate for WriteReq accesses
system.cpu.dcache.WriteReq_avg_mshr_miss_latency::.cpu.data 71040.305911                       # average WriteReq mshr miss latency
system.cpu.dcache.WriteReq_avg_mshr_miss_latency::total 71040.305911                       # average WriteReq mshr miss latency
system.cpu.dcache.power_state.pwrStateResidencyTicks::UNDEFINED  32271064500                       # Cumulative time (in ticks) in various power states
system.cpu.dcache.tags.tagsinuse           511.477233                       # Cycle average of tags in use
system.cpu.dcache.tags.total_refs            34573254                       # Total number of references to valid blocks.
system.cpu.dcache.tags.sampled_refs             91145                       # Sample count of references to valid blocks.
system.cpu.dcache.tags.avg_refs            379.321455                       # Average number of references to valid blocks.
system.cpu.dcache.tags.warmup_cycle            163000                       # Cycle when the warmup percentage was hit.
system.cpu.dcache.tags.occ_blocks::.cpu.data   511.477233                       # Average occupied blocks per requestor
system.cpu.dcache.tags.occ_percent::.cpu.data     0.998979                       # Average percentage of cache occupancy
system.cpu.dcache.tags.occ_percent::total     0.998979                       # Average percentage of cache occupancy
system.cpu.dcache.tags.occ_task_id_blocks::1024          512                       # Occupied blocks per task id
system.cpu.dcache.tags.age_task_id_blocks_1024::0            2                       # Occupied blocks per task id
system.cpu.dcache.tags.age_task_id_blocks_1024::1           15                       # Occupied blocks per task id
system.cpu.dcache.tags.age_task_id_blocks_1024::2          132                       # Occupied blocks per task id
system.cpu.dcache.tags.age_task_id_blocks_1024::3          341                       # Occupied blocks per task id
system.cpu.dcache.tags.age_task_id_blocks_1024::4           22                       # Occupied blocks per task id
system.cpu.dcache.tags.occ_task_id_percent::1024            1                       # Percentage of cache occupancy per task id
system.cpu.dcache.tags.tag_accesses          69382713                       # Number of tag accesses
system.cpu.dcache.tags.data_accesses         69382713                       # Number of data accesses
system.cpu.dcache.tags.power_state.pwrStateResidencyTicks::UNDEFINED  32271064500                       # Cumulative time (in ticks) in various power states
system.cpu.decode.idleCycles                 10055376                       # Number of cycles decode is idle
system.cpu.decode.blockedCycles              27540774                       # Number of cycles decode is blocked
system.cpu.decode.runCycles                  19127313                       # Number of cycles decode is running
system.cpu.decode.unblockCycles               7203568                       # Number of cycles decode is unblocking
system.cpu.decode.squashCycles                 481395                       # Number of cycles decode is squashing
system.cpu.decode.branchResolved              8545388                       # Number of times decode resolved a  branch
system.cpu.decode.branchMispred                  1855                       # Number of times decode detected a branch misprediction
system.cpu.decode.decodedInsts              192444763                       # Number of instructions handled by decode
system.cpu.decode.squashedInsts                  9297                       # Number of squashed instructions handled by decode
system.cpu.dtb.rdAccesses                    32037249                       # TLB accesses on read requests
system.cpu.dtb.wrAccesses                    13743979                       # TLB accesses on write requests
system.cpu.dtb.rdMisses                          3152                       # TLB misses on read requests
system.cpu.dtb.wrMisses                         16776                       # TLB misses on write requests
system.cpu.dtb.walker.power_state.pwrStateResidencyTicks::UNDEFINED  32271064500                       # Cumulative time (in ticks) in various power states
system.cpu.dtb_walker_cache.blocked_cycles::no_mshrs            0                       # number of cycles access was blocked
system.cpu.dtb_walker_cache.blocked_cycles::no_targets            0                       # number of cycles access was blocked
system.cpu.dtb_walker_cache.blocked::no_mshrs            0                       # number of cycles access was blocked
system.cpu.dtb_walker_cache.blocked::no_targets            0                       # number of cycles access was blocked
system.cpu.dtb_walker_cache.avg_blocked_cycles::no_mshrs          nan                       # average number of cycles each access was blocked
system.cpu.dtb_walker_cache.avg_blocked_cycles::no_targets          nan                       # average number of cycles each access was blocked
system.cpu.dtb_walker_cache.replacements            0                       # number of replacements
system.cpu.dtb_walker_cache.power_state.pwrStateResidencyTicks::UNDEFINED  32271064500                       # Cumulative time (in ticks) in various power states
system.cpu.dtb_walker_cache.tags.tagsinuse            0                       # Cycle average of tags in use
system.cpu.dtb_walker_cache.tags.total_refs            0                       # Total number of references to valid blocks.
system.cpu.dtb_walker_cache.tags.sampled_refs            0                       # Sample count of references to valid blocks.
system.cpu.dtb_walker_cache.tags.avg_refs          nan                       # Average number of references to valid blocks.
system.cpu.dtb_walker_cache.tags.warmup_cycle            0                       # Cycle when the warmup percentage was hit.
system.cpu.dtb_walker_cache.tags.tag_accesses            0                       # Number of tag accesses
system.cpu.dtb_walker_cache.tags.data_accesses            0                       # Number of data accesses
system.cpu.dtb_walker_cache.tags.power_state.pwrStateResidencyTicks::UNDEFINED  32271064500                       # Cumulative time (in ticks) in various power states
system.cpu.fetch.icacheStallCycles           10791358                       # Number of cycles fetch is stalled on an Icache miss
system.cpu.fetch.insts                      122571527                       # Number of instructions fetch has processed
system.cpu.fetch.branches                    17719275                       # Number of branches that fetch encountered
system.cpu.fetch.predictedBranches           11110663                       # Number of branches that fetch has predicted taken
system.cpu.fetch.cycles                      53126308                       # Number of cycles fetch has run and was not squashing or blocked
system.cpu.fetch.squashCycles                  966398                       # Number of cycles fetch has spent squashing
system.cpu.fetch.miscStallCycles                  963                       # Number of cycles fetch has spent waiting on interrupts,or bad addresses, or out of MSHRs
system.cpu.fetch.pendingTrapStallCycles          6529                       # Number of stall cycles due to pending traps
system.cpu.fetch.pendingQuiesceStallCycles           26                       # Number of stall cycles due to pending quiesce instructions
system.cpu.fetch.icacheWaitRetryStallCycles           43                       # Number of stall cycles due to full MSHR
system.cpu.fetch.cacheLines                  10438706                       # Number of cache lines fetched
system.cpu.fetch.icacheSquashes                103760                       # Number of outstanding Icache misses that were squashed
system.cpu.fetch.nisnDist::samples           64408426                       # Number of instructions fetched each cycle (Total)
system.cpu.fetch.nisnDist::mean              3.063336                       # Number of instructions fetched each cycle (Total)
system.cpu.fetch.nisnDist::stdev             3.499932                       # Number of instructions fetched each cycle (Total)
system.cpu.fetch.nisnDist::underflows               0      0.00%      0.00% # Number of instructions fetched each cycle (Total)
system.cpu.fetch.nisnDist::0                 32443384     50.37%     50.37% # Number of instructions fetched each cycle (Total)
system.cpu.fetch.nisnDist::1                  1297047      2.01%     52.39% # Number of instructions fetched each cycle (Total)
system.cpu.fetch.nisnDist::2                  3158350      4.90%     57.29% # Number of instructions fetched each cycle (Total)
system.cpu.fetch.nisnDist::3                  1753412      2.72%     60.01% # Number of instructions fetched each cycle (Total)
system.cpu.fetch.nisnDist::4                  1511215      2.35%     62.36% # Number of instructions fetched each cycle (Total)
system.cpu.fetch.nisnDist::5                  2269875      3.52%     65.88% # Number of instructions fetched each cycle (Total)
system.cpu.fetch.nisnDist::6                  3903721      6.06%     71.94% # Number of instructions fetched each cycle (Total)
system.cpu.fetch.nisnDist::7                   957302      1.49%     73.43% # Number of instructions fetched each cycle (Total)
system.cpu.fetch.nisnDist::8                 17114120     26.57%    100.00% # Number of instructions fetched each cycle (Total)
system.cpu.fetch.nisnDist::overflows                0      0.00%    100.00% # Number of instructions fetched each cycle (Total)
system.cpu.fetch.nisnDist::min_value                0                       # Number of instructions fetched each cycle (Total)
system.cpu.fetch.nisnDist::max_value                8                       # Number of instructions fetched each cycle (Total)
system.cpu.fetch.nisnDist::total             64408426                       # Number of instructions fetched each cycle (Total)
system.cpu.fetch.branchRate                  0.274538                       # Number of branch fetches per cycle
system.cpu.fetch.rate                        1.899093                       # Number of inst fetches per cycle
system.cpu.icache.demand_hits::.cpu.inst     10435383                       # number of demand (read+write) hits
system.cpu.icache.demand_hits::total         10435383                       # number of demand (read+write) hits
system.cpu.icache.overall_hits::.cpu.inst     10435383                       # number of overall hits
system.cpu.icache.overall_hits::total        10435383                       # number of overall hits
system.cpu.icache.demand_misses::.cpu.inst         3323                       # number of demand (read+write) misses
system.cpu.icache.demand_misses::total           3323                       # number of demand (read+write) misses
system.cpu.icache.overall_misses::.cpu.inst         3323                       # number of overall misses
system.cpu.icache.overall_misses::total          3323                       # number of overall misses
system.cpu.icache.demand_miss_latency::.cpu.inst    200719500                       # number of demand (read+write) miss cycles
system.cpu.icache.demand_miss_latency::total    200719500                       # number of demand (read+write) miss cycles
system.cpu.icache.overall_miss_latency::.cpu.inst    200719500                       # number of overall miss cycles
system.cpu.icache.overall_miss_latency::total    200719500                       # number of overall miss cycles
system.cpu.icache.demand_accesses::.cpu.inst     10438706                       # number of demand (read+write) accesses
system.cpu.icache.demand_accesses::total     10438706                       # number of demand (read+write) accesses
system.cpu.icache.overall_accesses::.cpu.inst     10438706                       # number of overall (read+write) accesses
system.cpu.icache.overall_accesses::total     10438706                       # number of overall (read+write) accesses
system.cpu.icache.demand_miss_rate::.cpu.inst     0.000318                       # miss rate for demand accesses
system.cpu.icache.demand_miss_rate::total     0.000318                       # miss rate for demand accesses
system.cpu.icache.overall_miss_rate::.cpu.inst     0.000318                       # miss rate for overall accesses
system.cpu.icache.overall_miss_rate::total     0.000318                       # miss rate for overall accesses
system.cpu.icache.demand_avg_miss_latency::.cpu.inst 60403.099609                       # average overall miss latency
system.cpu.icache.demand_avg_miss_latency::total 60403.099609                       # average overall miss latency
system.cpu.icache.overall_avg_miss_latency::.cpu.inst 60403.099609                       # average overall miss latency
system.cpu.icache.overall_avg_miss_latency::total 60403.099609                       # average overall miss latency
system.cpu.icache.blocked_cycles::no_mshrs          244                       # number of cycles access was blocked
system.cpu.icache.blocked_cycles::no_targets            0                       # number of cycles access was blocked
system.cpu.icache.blocked::no_mshrs                11                       # number of cycles access was blocked
system.cpu.icache.blocked::no_targets               0                       # number of cycles access was blocked
system.cpu.icache.avg_blocked_cycles::no_mshrs    22.181818                       # average number of cycles each access was blocked
system.cpu.icache.avg_blocked_cycles::no_targets          nan                       # average number of cycles each access was blocked
system.cpu.icache.writebacks::.writebacks         2054                       # number of writebacks
system.cpu.icache.writebacks::total              2054                       # number of writebacks
system.cpu.icache.demand_mshr_hits::.cpu.inst          759                       # number of demand (read+write) MSHR hits
system.cpu.icache.demand_mshr_hits::total          759                       # number of demand (read+write) MSHR hits
system.cpu.icache.overall_mshr_hits::.cpu.inst          759                       # number of overall MSHR hits
system.cpu.icache.overall_mshr_hits::total          759                       # number of overall MSHR hits
system.cpu.icache.demand_mshr_misses::.cpu.inst         2564                       # number of demand (read+write) MSHR misses
system.cpu.icache.demand_mshr_misses::total         2564                       # number of demand (read+write) MSHR misses
system.cpu.icache.overall_mshr_misses::.cpu.inst         2564                       # number of overall MSHR misses
system.cpu.icache.overall_mshr_misses::total         2564                       # number of overall MSHR misses
system.cpu.icache.demand_mshr_miss_latency::.cpu.inst    159470000                       # number of demand (read+write) MSHR miss cycles
system.cpu.icache.demand_mshr_miss_latency::total    159470000                       # number of demand (read+write) MSHR miss cycles
system.cpu.icache.overall_mshr_miss_latency::.cpu.inst    159470000                       # number of overall MSHR miss cycles
system.cpu.icache.overall_mshr_miss_latency::total    159470000                       # number of overall MSHR miss cycles
system.cpu.icache.demand_mshr_miss_rate::.cpu.inst     0.000246                       # mshr miss rate for demand accesses
system.cpu.icache.demand_mshr_miss_rate::total     0.000246                       # mshr miss rate for demand accesses
system.cpu.icache.overall_mshr_miss_rate::.cpu.inst     0.000246                       # mshr miss rate for overall accesses
system.cpu.icache.overall_mshr_miss_rate::total     0.000246                       # mshr miss rate for overall accesses
system.cpu.icache.demand_avg_mshr_miss_latency::.cpu.inst 62195.787832                       # average overall mshr miss latency
system.cpu.icache.demand_avg_mshr_miss_latency::total 62195.787832                       # average overall mshr miss latency
system.cpu.icache.overall_avg_mshr_miss_latency::.cpu.inst 62195.787832                       # average overall mshr miss latency
system.cpu.icache.overall_avg_mshr_miss_latency::total 62195.787832                       # average overall mshr miss latency
system.cpu.icache.replacements                   2054                       # number of replacements
system.cpu.icache.ReadReq_hits::.cpu.inst     10435383                       # number of ReadReq hits
system.cpu.icache.ReadReq_hits::total        10435383                       # number of ReadReq hits
system.cpu.icache.ReadReq_misses::.cpu.inst         3323                       # number of ReadReq misses
system.cpu.icache.ReadReq_misses::total          3323                       # number of ReadReq misses
system.cpu.icache.ReadReq_miss_latency::.cpu.inst    200719500                       # number of ReadReq miss cycles
system.cpu.icache.ReadReq_miss_latency::total    200719500                       # number of ReadReq miss cycles
system.cpu.icache.ReadReq_accesses::.cpu.inst     10438706                       # number of ReadReq accesses(hits+misses)
system.cpu.icache.ReadReq_accesses::total     10438706                       # number of ReadReq accesses(hits+misses)
system.cpu.icache.ReadReq_miss_rate::.cpu.inst     0.000318                       # miss rate for ReadReq accesses
system.cpu.icache.ReadReq_miss_rate::total     0.000318                       # miss rate for ReadReq accesses
system.cpu.icache.ReadReq_avg_miss_latency::.cpu.inst 60403.099609                       # average ReadReq miss latency
system.cpu.icache.ReadReq_avg_miss_latency::total 60403.099609                       # average ReadReq miss latency
system.cpu.icache.ReadReq_mshr_hits::.cpu.inst          759                       # number of ReadReq MSHR hits
system.cpu.icache.ReadReq_mshr_hits::total          759                       # number of ReadReq MSHR hits
system.cpu.icache.ReadReq_mshr_misses::.cpu.inst         2564                       # number of ReadReq MSHR misses
system.cpu.icache.ReadReq_mshr_misses::total         2564                       # number of ReadReq MSHR misses
system.cpu.icache.ReadReq_mshr_miss_latency::.cpu.inst    159470000                       # number of ReadReq MSHR miss cycles
system.cpu.icache.ReadReq_mshr_miss_latency::total    159470000                       # number of ReadReq MSHR miss cycles
system.cpu.icache.ReadReq_mshr_miss_rate::.cpu.inst     0.000246                       # mshr miss rate for ReadReq accesses
system.cpu.icache.ReadReq_mshr_miss_rate::total     0.000246                       # mshr miss rate for ReadReq accesses
system.cpu.icache.ReadReq_avg_mshr_miss_latency::.cpu.inst 62195.787832                       # average ReadReq mshr miss latency
system.cpu.icache.ReadReq_avg_mshr_miss_latency::total 62195.787832                       # average ReadReq mshr miss latency
system.cpu.icache.power_state.pwrStateResidencyTicks::UNDEFINED  32271064500                       # Cumulative time (in ticks) in various power states
system.cpu.icache.tags.tagsinuse           508.704737                       # Cycle average of tags in use
system.cpu.icache.tags.total_refs            10437947                       # Total number of references to valid blocks.
system.cpu.icache.tags.sampled_refs              2564                       # Sample count of references to valid blocks.
system.cpu.icache.tags.avg_refs           4070.962168                       # Average number of references to valid blocks.
system.cpu.icache.tags.warmup_cycle             79500                       # Cycle when the warmup percentage was hit.
system.cpu.icache.tags.occ_blocks::.cpu.inst   508.704737                       # Average occupied blocks per requestor
system.cpu.icache.tags.occ_percent::.cpu.inst     0.993564                       # Average percentage of cache occupancy
system.cpu.icache.tags.occ_percent::total     0.993564                       # Average percentage of cache occupancy
system.cpu.icache.tags.occ_task_id_blocks::1024          510                       # Occupied blocks per task id
system.cpu.icache.tags.age_task_id_blocks_1024::4          510                       # Occupied blocks per task id
system.cpu.icache.tags.occ_task_id_percent::1024     0.996094                       # Percentage of cache occupancy per task id
system.cpu.icache.tags.tag_accesses          20879976                       # Number of tag accesses
system.cpu.icache.tags.data_accesses         20879976                       # Number of data accesses
system.cpu.icache.tags.power_state.pwrStateResidencyTicks::UNDEFINED  32271064500                       # Cumulative time (in ticks) in various power states
system.cpu.interrupts.clk_domain.clock           8000                       # Clock period in ticks
system.cpu.itb.rdAccesses                           0                       # TLB accesses on read requests
system.cpu.itb.wrAccesses                    10439776                       # TLB accesses on write requests
system.cpu.itb.rdMisses                             0                       # TLB misses on read requests
system.cpu.itb.wrMisses                          1386                       # TLB misses on write requests
system.cpu.itb.walker.power_state.pwrStateResidencyTicks::UNDEFINED  32271064500                       # Cumulative time (in ticks) in various power states
system.cpu.itb_walker_cache.blocked_cycles::no_mshrs            0                       # number of cycles access was blocked
system.cpu.itb_walker_cache.blocked_cycles::no_targets            0                       # number of cycles access was blocked
system.cpu.itb_walker_cache.blocked::no_mshrs            0                       # number of cycles access was blocked
system.cpu.itb_walker_cache.blocked::no_targets            0                       # number of cycles access was blocked
system.cpu.itb_walker_cache.avg_blocked_cycles::no_mshrs          nan                       # average number of cycles each access was blocked
system.cpu.itb_walker_cache.avg_blocked_cycles::no_targets          nan                       # average number of cycles each access was blocked
system.cpu.itb_walker_cache.replacements            0                       # number of replacements
system.cpu.itb_walker_cache.power_state.pwrStateResidencyTicks::UNDEFINED  32271064500                       # Cumulative time (in ticks) in various power states
system.cpu.itb_walker_cache.tags.tagsinuse            0                       # Cycle average of tags in use
system.cpu.itb_walker_cache.tags.total_refs            0                       # Total number of references to valid blocks.
system.cpu.itb_walker_cache.tags.sampled_refs            0                       # Sample count of references to valid blocks.
system.cpu.itb_walker_cache.tags.avg_refs          nan                       # Average number of references to valid blocks.
system.cpu.itb_walker_cache.tags.warmup_cycle            0                       # Cycle when the warmup percentage was hit.
system.cpu.itb_walker_cache.tags.tag_accesses            0                       # Number of tag accesses
system.cpu.itb_walker_cache.tags.data_accesses            0                       # Number of data accesses
system.cpu.itb_walker_cache.tags.power_state.pwrStateResidencyTicks::UNDEFINED  32271064500                       # Cumulative time (in ticks) in various power states
system.cpu.lsq0.forwLoads                    10727339                       # Number of loads that had data forwarded from stores
system.cpu.lsq0.squashedLoads                 5145573                       # Number of loads squashed
system.cpu.lsq0.ignoredResponses                 9991                       # Number of memory responses ignored because the instruction is squashed
system.cpu.lsq0.memOrderViolation                1918                       # Number of memory ordering violations
system.cpu.lsq0.squashedStores                 649767                       # Number of stores squashed
system.cpu.lsq0.rescheduledLoads                    9                       # Number of loads that were rescheduled
system.cpu.lsq0.blockedByCache                    622                       # Number of times an access to memory failed due to the cache being blocked
system.cpu.power_state.pwrStateResidencyTicks::ON  32271064500                       # Cumulative time (in ticks) in various power states
system.cpu.rename.squashCycles                 481395                       # Number of cycles rename is squashing
system.cpu.rename.idleCycles                 12995837                       # Number of cycles rename is idle
system.cpu.rename.blockCycles                 7044023                       # Number of cycles rename is blocking
system.cpu.rename.serializeStallCycles          13197                       # count of cycles rename stalledfor serializing inst
system.cpu.rename.runCycles                  23280670                       # Number of cycles rename is running
system.cpu.rename.unblockCycles              20593304                       # Number of cycles rename is unblocking
system.cpu.rename.renamedInsts              189798796                       # Number of instructions processed by rename
system.cpu.rename.ROBFullEvents                 16345                       # Number of times rename has blocked due to ROB full
system.cpu.rename.IQFullEvents                7110523                       # Number of times rename has blocked due to IQ full
system.cpu.rename.LQFullEvents               10011015                       # Number of times rename has blocked due to LQ full
system.cpu.rename.SQFullEvents                4008659                       # Number of times rename has blocked due to SQ full
system.cpu.rename.fullRegistersEvents              21                       # Number of times there has been no free registers
system.cpu.rename.renamedOperands           251718205                       # Number of destination operands rename has renamed
system.cpu.rename.lookups                   521222899                       # Number of register rename lookups that rename has made
system.cpu.rename.intLookups                321368801                       # Number of integer rename lookups
system.cpu.rename.fpLookups                   7848534                       # Number of floating rename lookups
system.cpu.rename.committedMaps             211750085                       # Number of HB maps that are committed
system.cpu.rename.undoneMaps                 39967948                       # Number of HB maps that are undone due to squashing
system.cpu.rename.serializing                     737                       # count of serializing insts renamed
system.cpu.rename.tempSerializing                 716                       # count of temporary serializing insts renamed
system.cpu.rename.skidInsts                  36339281                       # count of insts added to the skid buffer
system.cpu.rob.reads                        238406546                       # The number of ROB reads
system.cpu.rob.writes                       373788636                       # The number of ROB writes
system.cpu.thread_0.numInsts                100000000                       # Number of Instructions committed
system.cpu.thread_0.numOps                  155128130                       # Number of Ops committed
system.cpu.thread_0.numMemRefs                      0                       # Number of Memory References
system.cpu_clk_domain.clock                       500                       # Clock period in ticks
system.cpu_voltage_domain.voltage                   1                       # Voltage in Volts
system.l2.demand_hits::.cpu.inst                  458                       # number of demand (read+write) hits
system.l2.demand_hits::.cpu.data                43219                       # number of demand (read+write) hits
system.l2.demand_hits::total                    43677                       # number of demand (read+write) hits
system.l2.overall_hits::.cpu.inst                 458                       # number of overall hits
system.l2.overall_hits::.cpu.data               43219                       # number of overall hits
system.l2.overall_hits::total                   43677                       # number of overall hits
system.l2.demand_misses::.cpu.inst               2103                       # number of demand (read+write) misses
system.l2.demand_misses::.cpu.data              47926                       # number of demand (read+write) misses
system.l2.demand_misses::total                  50029                       # number of demand (read+write) misses
system.l2.overall_misses::.cpu.inst              2103                       # number of overall misses
system.l2.overall_misses::.cpu.data             47926                       # number of overall misses
system.l2.overall_misses::total                 50029                       # number of overall misses
system.l2.demand_miss_latency::.cpu.inst    150624500                       # number of demand (read+write) miss cycles
system.l2.demand_miss_latency::.cpu.data   3471557500                       # number of demand (read+write) miss cycles
system.l2.demand_miss_latency::total       3622182000                       # number of demand (read+write) miss cycles
system.l2.overall_miss_latency::.cpu.inst    150624500                       # number of overall miss cycles
system.l2.overall_miss_latency::.cpu.data   3471557500                       # number of overall miss cycles
system.l2.overall_miss_latency::total      3622182000                       # number of overall miss cycles
system.l2.demand_accesses::.cpu.inst             2561                       # number of demand (read+write) accesses
system.l2.demand_accesses::.cpu.data            91145                       # number of demand (read+write) accesses
system.l2.demand_accesses::total                93706                       # number of demand (read+write) accesses
system.l2.overall_accesses::.cpu.inst            2561                       # number of overall (read+write) accesses
system.l2.overall_accesses::.cpu.data           91145                       # number of overall (read+write) accesses
system.l2.overall_accesses::total               93706                       # number of overall (read+write) accesses
system.l2.demand_miss_rate::.cpu.inst        0.821164                       # miss rate for demand accesses
system.l2.demand_miss_rate::.cpu.data        0.525821                       # miss rate for demand accesses
system.l2.demand_miss_rate::total            0.533893                       # miss rate for demand accesses
system.l2.overall_miss_rate::.cpu.inst       0.821164                       # miss rate for overall accesses
system.l2.overall_miss_rate::.cpu.data       0.525821                       # miss rate for overall accesses
system.l2.overall_miss_rate::total           0.533893                       # miss rate for overall accesses
system.l2.demand_avg_miss_latency::.cpu.inst 71623.632905                       # average overall miss latency
system.l2.demand_avg_miss_latency::.cpu.data 72435.786421                       # average overall miss latency
system.l2.demand_avg_miss_latency::total 72401.647045                       # average overall miss latency
system.l2.overall_avg_miss_latency::.cpu.inst 71623.632905                       # average overall miss latency
system.l2.overall_avg_miss_latency::.cpu.data 72435.786421                       # average overall miss latency
[...]
system.mem_ctrls.dram.bw_total::.cpu.data     95046880                       # Total bandwidth to/from this memory (bytes/s)
system.mem_ctrls.dram.bw_total::total       161248105                       # Total bandwidth to/from this memory (bytes/s)
system.mem_ctrls.dram.readBursts                50024                       # Number of DRAM read bursts
system.mem_ctrls.dram.writeBursts               31262                       # Number of DRAM write bursts
system.mem_ctrls.dram.perBankRdBursts::0         3349                       # Per bank write bursts
system.mem_ctrls.dram.perBankRdBursts::1         3412                       # Per bank write bursts
system.mem_ctrls.dram.perBankRdBursts::2         3241                       # Per bank write bursts
system.mem_ctrls.dram.perBankRdBursts::3         3258                       # Per bank write bursts
system.mem_ctrls.dram.perBankRdBursts::4         3228                       # Per bank write bursts
system.mem_ctrls.dram.perBankRdBursts::5         3319                       # Per bank write bursts
system.mem_ctrls.dram.perBankRdBursts::6         3325                       # Per bank write bursts
system.mem_ctrls.dram.perBankRdBursts::7         3100                       # Per bank write bursts
system.mem_ctrls.dram.perBankRdBursts::8         3173                       # Per bank write bursts
system.mem_ctrls.dram.perBankRdBursts::9         3051                       # Per bank write bursts
system.mem_ctrls.dram.perBankRdBursts::10         3157                       # Per bank write bursts
system.mem_ctrls.dram.perBankRdBursts::11         3131                       # Per bank write bursts
system.mem_ctrls.dram.perBankRdBursts::12         3028                       # Per bank write bursts
system.mem_ctrls.dram.perBankRdBursts::13         2709                       # Per bank write bursts
system.mem_ctrls.dram.perBankRdBursts::14         2863                       # Per bank write bursts
system.mem_ctrls.dram.perBankRdBursts::15         2680                       # Per bank write bursts
system.mem_ctrls.dram.perBankWrBursts::0         2025                       # Per bank write bursts
system.mem_ctrls.dram.perBankWrBursts::1         2289                       # Per bank write bursts
system.mem_ctrls.dram.perBankWrBursts::2         2132                       # Per bank write bursts
system.mem_ctrls.dram.perBankWrBursts::3         2113                       # Per bank write bursts
system.mem_ctrls.dram.perBankWrBursts::4         1980                       # Per bank write bursts
system.mem_ctrls.dram.perBankWrBursts::5         1765                       # Per bank write bursts
system.mem_ctrls.dram.perBankWrBursts::6         1860                       # Per bank write bursts
system.mem_ctrls.dram.perBankWrBursts::7         1849                       # Per bank write bursts
system.mem_ctrls.dram.perBankWrBursts::8         1985                       # Per bank write bursts
system.mem_ctrls.dram.perBankWrBursts::9         2018                       # Per bank write bursts
system.mem_ctrls.dram.perBankWrBursts::10         2062                       # Per bank write bursts
system.mem_ctrls.dram.perBankWrBursts::11         1950                       # Per bank write bursts
system.mem_ctrls.dram.perBankWrBursts::12         2007                       # Per bank write bursts
system.mem_ctrls.dram.perBankWrBursts::13         1789                       # Per bank write bursts
system.mem_ctrls.dram.perBankWrBursts::14         1808                       # Per bank write bursts
system.mem_ctrls.dram.perBankWrBursts::15         1630                       # Per bank write bursts
system.mem_ctrls.dram.totQLat               522091000                       # Total ticks spent queuing
system.mem_ctrls.dram.totBusLat             250120000                       # Total ticks spent in databus transfers
system.mem_ctrls.dram.totMemAccLat         1460041000                       # Total ticks spent from burst creation until serviced by the DRAM
system.mem_ctrls.dram.avgQLat                10436.81                       # Average queueing delay per DRAM burst
system.mem_ctrls.dram.avgBusLat               5000.00                       # Average bus latency per DRAM burst
system.mem_ctrls.dram.avgMemAccLat           29186.81                       # Average memory access latency per DRAM burst
system.mem_ctrls.dram.readRowHits               40066                       # Number of row buffer hits during reads
system.mem_ctrls.dram.writeRowHits              28248                       # Number of row buffer hits during writes
system.mem_ctrls.dram.readRowHitRate            80.09                       # Row buffer hit rate for reads
system.mem_ctrls.dram.writeRowHitRate           90.36                       # Row buffer hit rate for writes
system.mem_ctrls.dram.bytesPerActivate::samples        12971                       # Bytes accessed per row activation
system.mem_ctrls.dram.bytesPerActivate::mean   401.066996                       # Bytes accessed per row activation
system.mem_ctrls.dram.bytesPerActivate::gmean   207.201684                       # Bytes accessed per row activation
system.mem_ctrls.dram.bytesPerActivate::stdev   407.054458                       # Bytes accessed per row activation
system.mem_ctrls.dram.bytesPerActivate::0-127         5733     44.20%     44.20% # Bytes accessed per row activation
system.mem_ctrls.dram.bytesPerActivate::128-255         1543     11.90%     56.09% # Bytes accessed per row activation
system.mem_ctrls.dram.bytesPerActivate::256-383          708      5.46%     61.55% # Bytes accessed per row activation
system.mem_ctrls.dram.bytesPerActivate::384-511          509      3.92%     65.48% # Bytes accessed per row activation
system.mem_ctrls.dram.bytesPerActivate::512-639          394      3.04%     68.51% # Bytes accessed per row activation
system.mem_ctrls.dram.bytesPerActivate::640-767          284      2.19%     70.70% # Bytes accessed per row activation
system.mem_ctrls.dram.bytesPerActivate::768-895          365      2.81%     73.52% # Bytes accessed per row activation
system.mem_ctrls.dram.bytesPerActivate::896-1023          299      2.31%     75.82% # Bytes accessed per row activation
system.mem_ctrls.dram.bytesPerActivate::1024-1151         3136     24.18%    100.00% # Bytes accessed per row activation
system.mem_ctrls.dram.bytesPerActivate::total        12971                       # Bytes accessed per row activation
system.mem_ctrls.dram.bytesRead               3201536                       # Total number of bytes read from DRAM
system.mem_ctrls.dram.bytesWritten            2000768                       # Total number of bytes written to DRAM
system.mem_ctrls.dram.avgRdBW               99.207635                       # Average DRAM read bandwidth in MiBytes/s
system.mem_ctrls.dram.avgWrBW               61.998823                       # Average DRAM write bandwidth in MiBytes/s
system.mem_ctrls.dram.peakBW                 12800.00                       # Theoretical peak bandwidth in MiByte/s
system.mem_ctrls.dram.busUtil                    1.26                       # Data bus utilization in percentage
system.mem_ctrls.dram.busUtilRead                0.78                       # Data bus utilization in percentage for reads
system.mem_ctrls.dram.busUtilWrite               0.48                       # Data bus utilization in percentage for writes
system.mem_ctrls.dram.pageHitRate               84.04                       # Row buffer hit rate, read and write combined
system.mem_ctrls.dram.power_state.pwrStateResidencyTicks::UNDEFINED  32271064500                       # Cumulative time (in ticks) in various power states
system.mem_ctrls.dram.rank0.actEnergy        50515500                       # Energy for activate commands per rank (pJ)
system.mem_ctrls.dram.rank0.preEnergy        26849625                       # Energy for precharge commands per rank (pJ)
system.mem_ctrls.dram.rank0.readEnergy      187296480                       # Energy for read commands per rank (pJ)
system.mem_ctrls.dram.rank0.writeEnergy      83587860                       # Energy for write commands per rank (pJ)
system.mem_ctrls.dram.rank0.refreshEnergy 2547068160.000000                       # Energy for refresh commands per rank (pJ)
system.mem_ctrls.dram.rank0.actBackEnergy   3805970940                       # Energy for active background per rank (pJ)
system.mem_ctrls.dram.rank0.preBackEnergy   9187060800                       # Energy for precharge background per rank (pJ)
system.mem_ctrls.dram.rank0.actPowerDownEnergy            0                       # Energy for active power-down per rank (pJ)
system.mem_ctrls.dram.rank0.prePowerDownEnergy            0                       # Energy for precharge power-down per rank (pJ)
system.mem_ctrls.dram.rank0.selfRefreshEnergy            0                       # Energy for self refresh per rank (pJ)
system.mem_ctrls.dram.rank0.totalEnergy   15888349365                       # Total energy per rank (pJ)
system.mem_ctrls.dram.rank0.averagePower   492.340417                       # Core power per rank (mW)
system.mem_ctrls.dram.rank0.totalIdleTime            0                       # Total Idle time Per DRAM Rank
system.mem_ctrls.dram.rank0.pwrStateTime::IDLE  23822692000                       # Time in different power states
system.mem_ctrls.dram.rank0.pwrStateTime::REF   1077440000                       # Time in different power states
system.mem_ctrls.dram.rank0.pwrStateTime::SREF            0                       # Time in different power states
system.mem_ctrls.dram.rank0.pwrStateTime::PRE_PDN            0                       # Time in different power states
system.mem_ctrls.dram.rank0.pwrStateTime::ACT   7370932500                       # Time in different power states
system.mem_ctrls.dram.rank0.pwrStateTime::ACT_PDN            0                       # Time in different power states
system.mem_ctrls.dram.rank1.actEnergy        42104580                       # Energy for activate commands per rank (pJ)
system.mem_ctrls.dram.rank1.preEnergy        22375320                       # Energy for precharge commands per rank (pJ)
system.mem_ctrls.dram.rank1.readEnergy      169874880                       # Energy for read commands per rank (pJ)
system.mem_ctrls.dram.rank1.writeEnergy      79599780                       # Energy for write commands per rank (pJ)
system.mem_ctrls.dram.rank1.refreshEnergy 2547068160.000000                       # Energy for refresh commands per rank (pJ)
system.mem_ctrls.dram.rank1.actBackEnergy   3142013280                       # Energy for active background per rank (pJ)
system.mem_ctrls.dram.rank1.preBackEnergy   9746183040                       # Energy for precharge background per rank (pJ)
system.mem_ctrls.dram.rank1.actPowerDownEnergy            0                       # Energy for active power-down per rank (pJ)
system.mem_ctrls.dram.rank1.prePowerDownEnergy            0                       # Energy for precharge power-down per rank (pJ)
system.mem_ctrls.dram.rank1.selfRefreshEnergy            0                       # Energy for self refresh per rank (pJ)
system.mem_ctrls.dram.rank1.totalEnergy   15749219040                       # Total energy per rank (pJ)
system.mem_ctrls.dram.rank1.averagePower   488.029115                       # Core power per rank (mW)
system.mem_ctrls.dram.rank1.totalIdleTime            0                       # Total Idle time Per DRAM Rank
system.mem_ctrls.dram.rank1.pwrStateTime::IDLE  25287448250                       # Time in different power states
system.mem_ctrls.dram.rank1.pwrStateTime::REF   1077440000                       # Time in different power states
system.mem_ctrls.dram.rank1.pwrStateTime::SREF            0                       # Time in different power states
system.mem_ctrls.dram.rank1.pwrStateTime::PRE_PDN            0                       # Time in different power states
system.mem_ctrls.dram.rank1.pwrStateTime::ACT   5906176250                       # Time in different power states
system.mem_ctrls.dram.rank1.pwrStateTime::ACT_PDN            0                       # Time in different power states
system.mem_ctrls.power_state.pwrStateResidencyTicks::UNDEFINED  32271064500                       # Cumulative time (in ticks) in various power states
system.membus.trans_dist::ReadResp              11210                       # Transaction distribution
system.membus.trans_dist::WritebackDirty        31279                       # Transaction distribution
system.membus.trans_dist::CleanEvict            10116                       # Transaction distribution
system.membus.trans_dist::ReadExReq             38818                       # Transaction distribution
system.membus.trans_dist::ReadExResp            38818                       # Transaction distribution
system.membus.trans_dist::ReadSharedReq         11210                       # Transaction distribution
system.membus.pkt_count_system.l2.mem_side_port::system.mem_ctrls.port       141451                       # Packet count per connected requestor and responder (bytes)
system.membus.pkt_count_system.l2.mem_side_port::total       141451                       # Packet count per connected requestor and responder (bytes)
system.membus.pkt_count::total                 141451                       # Packet count per connected requestor and responder (bytes)
system.membus.pkt_size_system.l2.mem_side_port::system.mem_ctrls.port      5203648                       # Cumulative packet size per connected requestor and responder (bytes)
system.membus.pkt_size_system.l2.mem_side_port::total      5203648                       # Cumulative packet size per connected requestor and responder (bytes)
system.membus.pkt_size::total                 5203648                       # Cumulative packet size per connected requestor and responder (bytes)
system.membus.snoops                                0                       # Total snoops (count)
system.membus.snoopTraffic                          0                       # Total snoop traffic (bytes)
system.membus.snoop_fanout::samples             50028                       # Request fanout histogram
system.membus.snoop_fanout::mean                    0                       # Request fanout histogram
system.membus.snoop_fanout::stdev                   0                       # Request fanout histogram
system.membus.snoop_fanout::underflows              0      0.00%      0.00% # Request fanout histogram
system.membus.snoop_fanout::0                   50028    100.00%    100.00% # Request fanout histogram
system.membus.snoop_fanout::1                       0      0.00%    100.00% # Request fanout histogram
system.membus.snoop_fanout::overflows               0      0.00%    100.00% # Request fanout histogram
system.membus.snoop_fanout::min_value               0                       # Request fanout histogram
system.membus.snoop_fanout::max_value               0                       # Request fanout histogram
system.membus.snoop_fanout::total               50028                       # Request fanout histogram
system.membus.power_state.pwrStateResidencyTicks::UNDEFINED  32271064500                       # Cumulative time (in ticks) in various power states
system.membus.reqLayer2.occupancy            54134750                       # Layer occupancy (ticks)
system.membus.reqLayer2.utilization               0.2                       # Layer utilization (%)
system.membus.respLayer1.occupancy           62535000                       # Layer occupancy (ticks)
system.membus.respLayer1.utilization              0.2                       # Layer utilization (%)
system.tol2bus.trans_dist::ReadResp             53255                       # Transaction distribution
system.tol2bus.trans_dist::WritebackDirty       103882                       # Transaction distribution
system.tol2bus.trans_dist::WritebackClean         2054                       # Transaction distribution
system.tol2bus.trans_dist::CleanEvict           29043                       # Transaction distribution
system.tol2bus.trans_dist::ReadExReq            40454                       # Transaction distribution
system.tol2bus.trans_dist::ReadExResp           40454                       # Transaction distribution
system.tol2bus.trans_dist::ReadCleanReq          2564                       # Transaction distribution
system.tol2bus.trans_dist::ReadSharedReq        50691                       # Transaction distribution
system.tol2bus.pkt_count_system.cpu.icache.mem_side_port::system.l2.cpu_side_port         7179                       # Packet count per connected requestor and responder (bytes)
system.tol2bus.pkt_count_system.cpu.dcache.mem_side_port::system.l2.cpu_side_port       272923                       # Packet count per connected requestor and responder (bytes)
system.tol2bus.pkt_count::total                280102                       # Packet count per connected requestor and responder (bytes)
system.tol2bus.pkt_size_system.cpu.icache.mem_side_port::system.l2.cpu_side_port       295360                       # Cumulative packet size per connected requestor and responder (bytes)
system.tol2bus.pkt_size_system.cpu.dcache.mem_side_port::system.l2.cpu_side_port     10479872                       # Cumulative packet size per connected requestor and responder (bytes)
system.tol2bus.pkt_size::total               10775232                       # Cumulative packet size per connected requestor and responder (bytes)
system.tol2bus.snoops                           42295                       # Total snoops (count)
system.tol2bus.snoopTraffic                   2002048                       # Total snoop traffic (bytes)
system.tol2bus.snoop_fanout::samples           136001                       # Request fanout histogram
system.tol2bus.snoop_fanout::mean            0.006823                       # Request fanout histogram
system.tol2bus.snoop_fanout::stdev           0.082322                       # Request fanout histogram
system.tol2bus.snoop_fanout::underflows             0      0.00%      0.00% # Request fanout histogram
system.tol2bus.snoop_fanout::0                 135073     99.32%     99.32% # Request fanout histogram
system.tol2bus.snoop_fanout::1                    928      0.68%    100.00% # Request fanout histogram
system.tol2bus.snoop_fanout::2                      0      0.00%    100.00% # Request fanout histogram
system.tol2bus.snoop_fanout::3                      0      0.00%    100.00% # Request fanout histogram
system.tol2bus.snoop_fanout::4                      0      0.00%    100.00% # Request fanout histogram
system.tol2bus.snoop_fanout::overflows              0      0.00%    100.00% # Request fanout histogram
system.tol2bus.snoop_fanout::min_value              0                       # Request fanout histogram
system.tol2bus.snoop_fanout::max_value              1                       # Request fanout histogram
system.tol2bus.snoop_fanout::total             136001                       # Request fanout histogram
system.tol2bus.power_state.pwrStateResidencyTicks::UNDEFINED  32271064500                       # Cumulative time (in ticks) in various power states
system.tol2bus.reqLayer0.occupancy          167855000                       # Layer occupancy (ticks)
system.tol2bus.reqLayer0.utilization              0.5                       # Layer utilization (%)
system.tol2bus.respLayer0.occupancy           3848994                       # Layer occupancy (ticks)
system.tol2bus.respLayer0.utilization             0.0                       # Layer utilization (%)
system.tol2bus.respLayer1.occupancy         136717999                       # Layer occupancy (ticks)
system.tol2bus.respLayer1.utilization             0.4                       # Layer utilization (%)
system.voltage_domain.voltage                       1                       # Voltage in Volts

---------- End Simulation Statistics   ----------
