Global frequency set at 1000000000000 ticks per second
Redirecting stdout to /data/home/rwa116/Project/CMPT750-Proj-Benchmark/results/100M/X86/spec2017/602.gcc_s/DerivO3CPU/4K_PerceptronBP_ghs-28_pts-146/simout
Redirecting stderr to /data/home/rwa116/Project/CMPT750-Proj-Benchmark/results/100M/X86/spec2017/602.gcc_s/DerivO3CPU/4K_PerceptronBP_ghs-28_pts-146/simerr
gem5 Simulator System.  http://gem5.org
gem5 is copyrighted software; use the --copyright option for details.

gem5 version 20.1.0.2
gem5 compiled Nov 12 2023 22:10:15
gem5 started Nov 16 2023 02:37:29
gem5 executing on ARCH-750, pid 705198
command line: /data/home/rwa116/Project/CMPT750-Proj/build/X86/gem5.opt -re --outdir=/data/home/rwa116/Project/CMPT750-Proj-Benchmark/results/100M/X86/spec2017/602.gcc_s/DerivO3CPU/4K_PerceptronBP_ghs-28_pts-146 /data/home/rwa116/Project/CMPT750-Proj/configs/example/se.py --cpu-type=DerivO3CPU --caches --l2cache --l1d_size=32kB --l1i_size=32kB --l2_size=512kB --bp-type=PerceptronBP '--param=system.cpu[:].branchPred.globalHistorySize=28' '--param=system.cpu[:].branchPred.perceptronTableSize=146' '--param=system.cpu[:].branchPred.maxWeight=127' '--param=system.cpu[:].branchPred.minWeight=-128' '--param=system.cpu[:].branchPred.threshold=68' --cmd=/data/home/rwa116/Project/spec/benchspec/CPU/602.gcc_s/build/build_base_mytest-m64.0000/gcc_s '--options=gcc-pp.c -O5 -fipa-pta -o gcc-pp.opts-O5_-fipa-pta.s > gcc-pp.opts-O5_-fipa-pta.out 2>> gcc-pp.opts-O5_-fipa-pta.err' --sys-clock=4GHz --warmup-insts=1000000 --maxinsts=100000000

info: Standard input is not a terminal, disabling listeners.
**** REAL SIMULATION ****
Exiting @ tick 90092450500 because a thread reached the max instruction count
