
---------- Begin Simulation Statistics ----------
final_tick                                 5339521000                       # Number of ticks from beginning of simulation (restored from checkpoints and never reset)
host_inst_rate                                  74442                       # Simulator instruction rate (inst/s)
host_mem_usage                                 675124                       # Number of bytes of host memory used
host_op_rate                                   140301                       # Simulator op (including micro ops) rate (op/s)
host_seconds                                   134.33                       # Real time elapsed on the host
host_tick_rate                               39748128                       # Simulator tick rate (ticks/s)
sim_freq                                 1000000000000                       # Frequency of simulated ticks
sim_insts                                    10000001                       # Number of instructions simulated
sim_ops                                      18847133                       # Number of ops (including micro ops) simulated
sim_seconds                                  0.005340                       # Number of seconds simulated
sim_ticks                                  5339521000                       # Number of ticks simulated
system.cpu.cc_regfile_reads                  12081115                       # number of cc regfile reads
system.cpu.cc_regfile_writes                  5818150                       # number of cc regfile writes
system.cpu.committedInsts                    10000001                       # Number of Instructions Simulated
system.cpu.committedOps                      18847133                       # Number of Ops (including micro ops) Simulated
system.cpu.cpi                               1.067904                       # CPI: Cycles Per Instruction
system.cpu.cpi_total                         1.067904                       # CPI: Total CPI of All Threads
system.cpu.fp_regfile_reads                    532117                       # number of floating regfile reads
system.cpu.fp_regfile_writes                   292653                       # number of floating regfile writes
system.cpu.idleCycles                           87647                       # Total number of cycles that the CPU has spent unscheduled due to idling
system.cpu.iew.branchMispredicts                54979                       # Number of branch mispredicts detected at execute
system.cpu.iew.exec_branches                  2174516                       # Number of branches executed
system.cpu.iew.exec_nop                             0                       # number of nop insts executed
system.cpu.iew.exec_rate                     1.854102                       # Inst execution rate
system.cpu.iew.exec_refs                      4028806                       # number of memory reference insts executed
system.cpu.iew.exec_stores                    1648922                       # Number of stores executed
system.cpu.iew.exec_swp                             0                       # number of swp insts executed
system.cpu.iew.iewBlockCycles                  867513                       # Number of cycles IEW is blocking
system.cpu.iew.iewDispLoadInsts               2417962                       # Number of dispatched load instructions
system.cpu.iew.iewDispNonSpecInsts                 63                       # Number of dispatched non-speculative instructions
system.cpu.iew.iewDispSquashedInsts              1743                       # Number of squashed instructions skipped by dispatch
system.cpu.iew.iewDispStoreInsts              1688480                       # Number of dispatched store instructions
system.cpu.iew.iewDispatchedInsts            20319934                       # Number of instructions dispatched to IQ
system.cpu.iew.iewExecLoadInsts               2379884                       # Number of load instructions executed
system.cpu.iew.iewExecSquashedInsts            108746                       # Number of squashed instructions skipped in execute
system.cpu.iew.iewExecutedInsts              19800034                       # Number of executed instructions
system.cpu.iew.iewIQFullEvents                   6933                       # Number of times the IQ has become full, causing a stall
system.cpu.iew.iewIdleCycles                        0                       # Number of cycles IEW is idle
system.cpu.iew.iewLSQFullEvents                701793                       # Number of times the LSQ has become full, causing a stall
system.cpu.iew.iewSquashCycles                  45907                       # Number of cycles IEW is squashing
system.cpu.iew.iewUnblockCycles                715566                       # Number of cycles IEW is unblocking
system.cpu.iew.memOrderViolationEvents            194                       # Number of memory order violations
system.cpu.iew.predictedNotTakenIncorrect        40268                       # Number of branches that were predicted not taken incorrectly
system.cpu.iew.predictedTakenIncorrect          14711                       # Number of branches that were predicted taken incorrectly
system.cpu.iew.wb_consumers                  22472084                       # num instructions consuming a value
system.cpu.iew.wb_count                      19743647                       # cumulative count of insts written-back
system.cpu.iew.wb_fanout                     0.609179                       # average fanout of values written-back
system.cpu.iew.wb_producers                  13689516                       # num instructions producing a value
system.cpu.iew.wb_rate                       1.848822                       # insts written-back per cycle
system.cpu.iew.wb_sent                       19768060                       # cumulative count of insts sent to commit
system.cpu.int_regfile_reads                 30689356                       # number of integer regfile reads
system.cpu.int_regfile_writes                15804993                       # number of integer regfile writes
system.cpu.ipc                               0.936414                       # IPC: Instructions Per Cycle
system.cpu.ipc_total                         0.936414                       # IPC: Total IPC of All Threads
system.cpu.iq.FU_type_0::No_OpClass            194802      0.98%      0.98% # Type of FU issued
system.cpu.iq.FU_type_0::IntAlu              15228576     76.49%     77.47% # Type of FU issued
system.cpu.iq.FU_type_0::IntMult                86137      0.43%     77.90% # Type of FU issued
system.cpu.iq.FU_type_0::IntDiv                117642      0.59%     78.49% # Type of FU issued
system.cpu.iq.FU_type_0::FloatAdd               42759      0.21%     78.71% # Type of FU issued
system.cpu.iq.FU_type_0::FloatCmp                   0      0.00%     78.71% # Type of FU issued
system.cpu.iq.FU_type_0::FloatCvt                  32      0.00%     78.71% # Type of FU issued
system.cpu.iq.FU_type_0::FloatMult                  0      0.00%     78.71% # Type of FU issued
system.cpu.iq.FU_type_0::FloatMultAcc               0      0.00%     78.71% # Type of FU issued
system.cpu.iq.FU_type_0::FloatDiv                   0      0.00%     78.71% # Type of FU issued
system.cpu.iq.FU_type_0::FloatMisc                  0      0.00%     78.71% # Type of FU issued
system.cpu.iq.FU_type_0::FloatSqrt                  0      0.00%     78.71% # Type of FU issued
system.cpu.iq.FU_type_0::SimdAdd                  450      0.00%     78.71% # Type of FU issued
system.cpu.iq.FU_type_0::SimdAddAcc                 0      0.00%     78.71% # Type of FU issued
system.cpu.iq.FU_type_0::SimdAlu                22658      0.11%     78.82% # Type of FU issued
system.cpu.iq.FU_type_0::SimdCmp                   20      0.00%     78.82% # Type of FU issued
system.cpu.iq.FU_type_0::SimdCvt                34055      0.17%     79.00% # Type of FU issued
system.cpu.iq.FU_type_0::SimdMisc              122081      0.61%     79.61% # Type of FU issued
system.cpu.iq.FU_type_0::SimdMult                   0      0.00%     79.61% # Type of FU issued
system.cpu.iq.FU_type_0::SimdMultAcc                0      0.00%     79.61% # Type of FU issued
system.cpu.iq.FU_type_0::SimdShift                320      0.00%     79.61% # Type of FU issued
system.cpu.iq.FU_type_0::SimdShiftAcc               0      0.00%     79.61% # Type of FU issued
system.cpu.iq.FU_type_0::SimdDiv                    0      0.00%     79.61% # Type of FU issued
system.cpu.iq.FU_type_0::SimdSqrt                   0      0.00%     79.61% # Type of FU issued
system.cpu.iq.FU_type_0::SimdFloatAdd               0      0.00%     79.61% # Type of FU issued
system.cpu.iq.FU_type_0::SimdFloatAlu               0      0.00%     79.61% # Type of FU issued
system.cpu.iq.FU_type_0::SimdFloatCmp               0      0.00%     79.61% # Type of FU issued
system.cpu.iq.FU_type_0::SimdFloatCvt               4      0.00%     79.61% # Type of FU issued
system.cpu.iq.FU_type_0::SimdFloatDiv               0      0.00%     79.61% # Type of FU issued
system.cpu.iq.FU_type_0::SimdFloatMisc              0      0.00%     79.61% # Type of FU issued
system.cpu.iq.FU_type_0::SimdFloatMult              2      0.00%     79.61% # Type of FU issued
system.cpu.iq.FU_type_0::SimdFloatMultAcc            0      0.00%     79.61% # Type of FU issued
system.cpu.iq.FU_type_0::SimdFloatSqrt              0      0.00%     79.61% # Type of FU issued
system.cpu.iq.FU_type_0::SimdReduceAdd              0      0.00%     79.61% # Type of FU issued
system.cpu.iq.FU_type_0::SimdReduceAlu              0      0.00%     79.61% # Type of FU issued
system.cpu.iq.FU_type_0::SimdReduceCmp              0      0.00%     79.61% # Type of FU issued
system.cpu.iq.FU_type_0::SimdFloatReduceAdd            0      0.00%     79.61% # Type of FU issued
system.cpu.iq.FU_type_0::SimdFloatReduceCmp            0      0.00%     79.61% # Type of FU issued
system.cpu.iq.FU_type_0::SimdAes                    0      0.00%     79.61% # Type of FU issued
system.cpu.iq.FU_type_0::SimdAesMix                 0      0.00%     79.61% # Type of FU issued
system.cpu.iq.FU_type_0::SimdSha1Hash               0      0.00%     79.61% # Type of FU issued
system.cpu.iq.FU_type_0::SimdSha1Hash2              0      0.00%     79.61% # Type of FU issued
system.cpu.iq.FU_type_0::SimdSha256Hash             0      0.00%     79.61% # Type of FU issued
system.cpu.iq.FU_type_0::SimdSha256Hash2            0      0.00%     79.61% # Type of FU issued
system.cpu.iq.FU_type_0::SimdShaSigma2              0      0.00%     79.61% # Type of FU issued
system.cpu.iq.FU_type_0::SimdShaSigma3              0      0.00%     79.61% # Type of FU issued
system.cpu.iq.FU_type_0::SimdPredAlu                0      0.00%     79.61% # Type of FU issued
system.cpu.iq.FU_type_0::MemRead              2306586     11.59%     91.20% # Type of FU issued
system.cpu.iq.FU_type_0::MemWrite             1509792      7.58%     98.78% # Type of FU issued
system.cpu.iq.FU_type_0::FloatMemRead           93527      0.47%     99.25% # Type of FU issued
system.cpu.iq.FU_type_0::FloatMemWrite         149338      0.75%    100.00% # Type of FU issued
system.cpu.iq.FU_type_0::IprAccess                  0      0.00%    100.00% # Type of FU issued
system.cpu.iq.FU_type_0::InstPrefetch               0      0.00%    100.00% # Type of FU issued
system.cpu.iq.FU_type_0::total               19908781                       # Type of FU issued
system.cpu.iq.fp_alu_accesses                  503921                       # Number of floating point alu accesses
system.cpu.iq.fp_inst_queue_reads              996056                       # Number of floating instruction queue reads
system.cpu.iq.fp_inst_queue_wakeup_accesses       471990                       # Number of floating instruction queue wakeup accesses
system.cpu.iq.fp_inst_queue_writes             616365                       # Number of floating instruction queue writes
system.cpu.iq.fu_busy_cnt                      293964                       # FU busy when requested
system.cpu.iq.fu_busy_rate                   0.014766                       # FU busy rate (busy events/executed inst)
system.cpu.iq.fu_full::No_OpClass                   0      0.00%      0.00% # attempts to use FU when none available
system.cpu.iq.fu_full::IntAlu                  242741     82.58%     82.58% # attempts to use FU when none available
system.cpu.iq.fu_full::IntMult                      0      0.00%     82.58% # attempts to use FU when none available
system.cpu.iq.fu_full::IntDiv                       0      0.00%     82.58% # attempts to use FU when none available
system.cpu.iq.fu_full::FloatAdd                     0      0.00%     82.58% # attempts to use FU when none available
system.cpu.iq.fu_full::FloatCmp                     0      0.00%     82.58% # attempts to use FU when none available
system.cpu.iq.fu_full::FloatCvt                     0      0.00%     82.58% # attempts to use FU when none available
system.cpu.iq.fu_full::FloatMult                    0      0.00%     82.58% # attempts to use FU when none available
system.cpu.iq.fu_full::FloatMultAcc                 0      0.00%     82.58% # attempts to use FU when none available
system.cpu.iq.fu_full::FloatDiv                     0      0.00%     82.58% # attempts to use FU when none available
system.cpu.iq.fu_full::FloatMisc                    0      0.00%     82.58% # attempts to use FU when none available
system.cpu.iq.fu_full::FloatSqrt                    0      0.00%     82.58% # attempts to use FU when none available
system.cpu.iq.fu_full::SimdAdd                      0      0.00%     82.58% # attempts to use FU when none available
system.cpu.iq.fu_full::SimdAddAcc                   0      0.00%     82.58% # attempts to use FU when none available
system.cpu.iq.fu_full::SimdAlu                     15      0.01%     82.58% # attempts to use FU when none available
system.cpu.iq.fu_full::SimdCmp                      2      0.00%     82.58% # attempts to use FU when none available
system.cpu.iq.fu_full::SimdCvt                    879      0.30%     82.88% # attempts to use FU when none available
system.cpu.iq.fu_full::SimdMisc                   125      0.04%     82.92% # attempts to use FU when none available
system.cpu.iq.fu_full::SimdMult                     0      0.00%     82.92% # attempts to use FU when none available
system.cpu.iq.fu_full::SimdMultAcc                  0      0.00%     82.92% # attempts to use FU when none available
system.cpu.iq.fu_full::SimdShift                    1      0.00%     82.92% # attempts to use FU when none available
system.cpu.iq.fu_full::SimdShiftAcc                 0      0.00%     82.92% # attempts to use FU when none available
system.cpu.iq.fu_full::SimdDiv                      0      0.00%     82.92% # attempts to use FU when none available
system.cpu.iq.fu_full::SimdSqrt                     0      0.00%     82.92% # attempts to use FU when none available
system.cpu.iq.fu_full::SimdFloatAdd                 0      0.00%     82.92% # attempts to use FU when none available
system.cpu.iq.fu_full::SimdFloatAlu                 0      0.00%     82.92% # attempts to use FU when none available
system.cpu.iq.fu_full::SimdFloatCmp                 0      0.00%     82.92% # attempts to use FU when none available
system.cpu.iq.fu_full::SimdFloatCvt                 0      0.00%     82.92% # attempts to use FU when none available
system.cpu.iq.fu_full::SimdFloatDiv                 0      0.00%     82.92% # attempts to use FU when none available
system.cpu.iq.fu_full::SimdFloatMisc                0      0.00%     82.92% # attempts to use FU when none available
system.cpu.iq.fu_full::SimdFloatMult                0      0.00%     82.92% # attempts to use FU when none available
system.cpu.iq.fu_full::SimdFloatMultAcc             0      0.00%     82.92% # attempts to use FU when none available
system.cpu.iq.fu_full::SimdFloatSqrt                0      0.00%     82.92% # attempts to use FU when none available
system.cpu.iq.fu_full::SimdReduceAdd                0      0.00%     82.92% # attempts to use FU when none available
system.cpu.iq.fu_full::SimdReduceAlu                0      0.00%     82.92% # attempts to use FU when none available
system.cpu.iq.fu_full::SimdReduceCmp                0      0.00%     82.92% # attempts to use FU when none available
system.cpu.iq.fu_full::SimdFloatReduceAdd            0      0.00%     82.92% # attempts to use FU when none available
system.cpu.iq.fu_full::SimdFloatReduceCmp            0      0.00%     82.92% # attempts to use FU when none available
system.cpu.iq.fu_full::SimdAes                      0      0.00%     82.92% # attempts to use FU when none available
system.cpu.iq.fu_full::SimdAesMix                   0      0.00%     82.92% # attempts to use FU when none available
system.cpu.iq.fu_full::SimdSha1Hash                 0      0.00%     82.92% # attempts to use FU when none available
system.cpu.iq.fu_full::SimdSha1Hash2                0      0.00%     82.92% # attempts to use FU when none available
system.cpu.iq.fu_full::SimdSha256Hash               0      0.00%     82.92% # attempts to use FU when none available
system.cpu.iq.fu_full::SimdSha256Hash2              0      0.00%     82.92% # attempts to use FU when none available
system.cpu.iq.fu_full::SimdShaSigma2                0      0.00%     82.92% # attempts to use FU when none available
system.cpu.iq.fu_full::SimdShaSigma3                0      0.00%     82.92% # attempts to use FU when none available
system.cpu.iq.fu_full::SimdPredAlu                  0      0.00%     82.92% # attempts to use FU when none available
system.cpu.iq.fu_full::MemRead                  23126      7.87%     90.79% # attempts to use FU when none available
system.cpu.iq.fu_full::MemWrite                 16114      5.48%     96.27% # attempts to use FU when none available
system.cpu.iq.fu_full::FloatMemRead               525      0.18%     96.45% # attempts to use FU when none available
system.cpu.iq.fu_full::FloatMemWrite            10436      3.55%    100.00% # attempts to use FU when none available
system.cpu.iq.fu_full::IprAccess                    0      0.00%    100.00% # attempts to use FU when none available
system.cpu.iq.fu_full::InstPrefetch                 0      0.00%    100.00% # attempts to use FU when none available
system.cpu.iq.int_alu_accesses               19504022                       # Number of integer alu accesses
system.cpu.iq.int_inst_queue_reads           49716760                       # Number of integer instruction queue reads
system.cpu.iq.int_inst_queue_wakeup_accesses     19271657                       # Number of integer instruction queue wakeup accesses
system.cpu.iq.int_inst_queue_writes          21176545                       # Number of integer instruction queue writes
system.cpu.iq.iqInstsAdded                   20319785                       # Number of instructions added to the IQ (excludes non-spec)
system.cpu.iq.iqInstsIssued                  19908781                       # Number of instructions issued
system.cpu.iq.iqNonSpecInstsAdded                 149                       # Number of non-speculative instructions added to the IQ
system.cpu.iq.iqSquashedInstsExamined         1472789                       # Number of squashed instructions iterated over during squash; mainly for profiling
system.cpu.iq.iqSquashedInstsIssued              9895                       # Number of squashed instructions issued
system.cpu.iq.iqSquashedNonSpecRemoved             83                       # Number of squashed non-spec instructions that were removed
system.cpu.iq.iqSquashedOperandsExamined      1934198                       # Number of squashed operands that are examined and possibly removed from graph
system.cpu.iq.issued_per_cycle::samples      10591396                       # Number of insts issued each cycle
system.cpu.iq.issued_per_cycle::mean         1.879713                       # Number of insts issued each cycle
system.cpu.iq.issued_per_cycle::stdev        2.364954                       # Number of insts issued each cycle
system.cpu.iq.issued_per_cycle::underflows            0      0.00%      0.00% # Number of insts issued each cycle
system.cpu.iq.issued_per_cycle::0             5326910     50.29%     50.29% # Number of insts issued each cycle
system.cpu.iq.issued_per_cycle::1              781717      7.38%     57.68% # Number of insts issued each cycle
system.cpu.iq.issued_per_cycle::2              900350      8.50%     66.18% # Number of insts issued each cycle
system.cpu.iq.issued_per_cycle::3              934454      8.82%     75.00% # Number of insts issued each cycle
system.cpu.iq.issued_per_cycle::4              773666      7.30%     82.30% # Number of insts issued each cycle
system.cpu.iq.issued_per_cycle::5              610099      5.76%     88.06% # Number of insts issued each cycle
system.cpu.iq.issued_per_cycle::6              681881      6.44%     94.50% # Number of insts issued each cycle
system.cpu.iq.issued_per_cycle::7              371995      3.51%     98.01% # Number of insts issued each cycle
system.cpu.iq.issued_per_cycle::8              210324      1.99%    100.00% # Number of insts issued each cycle
system.cpu.iq.issued_per_cycle::overflows            0      0.00%    100.00% # Number of insts issued each cycle
system.cpu.iq.issued_per_cycle::min_value            0                       # Number of insts issued each cycle
system.cpu.iq.issued_per_cycle::max_value            8                       # Number of insts issued each cycle
system.cpu.iq.issued_per_cycle::total        10591396                       # Number of insts issued each cycle
system.cpu.iq.rate                           1.864285                       # Inst issue rate
system.cpu.iq.vec_alu_accesses                      0                       # Number of vector alu accesses
system.cpu.iq.vec_inst_queue_reads                  0                       # Number of vector instruction queue reads
system.cpu.iq.vec_inst_queue_wakeup_accesses            0                       # Number of vector instruction queue wakeup accesses
system.cpu.iq.vec_inst_queue_writes                 0                       # Number of vector instruction queue writes
system.cpu.memDep0.conflictingLoads             69395                       # Number of conflicting loads.
system.cpu.memDep0.conflictingStores            15295                       # Number of conflicting stores.
system.cpu.memDep0.insertedLoads              2417962                       # Number of loads inserted to the mem dependence unit.
system.cpu.memDep0.insertedStores             1688480                       # Number of stores inserted to the mem dependence unit.
system.cpu.misc_regfile_reads                 8349959                       # number of misc regfile reads
system.cpu.misc_regfile_writes                     18                       # number of misc regfile writes
system.cpu.numCycles                         10679043                       # number of cpu cycles simulated
system.cpu.numWorkItemsCompleted                    0                       # number of work items this cpu completed
system.cpu.numWorkItemsStarted                      0                       # number of work items this cpu started
system.cpu.timesIdled                             900                       # Number of times that the entire CPU went into an idle state and unscheduled itself
system.cpu.workload.numSyscalls                    54                       # Number of system calls
system.membus.snoop_filter.hit_multi_requests            0                       # Number of requests hitting in the snoop filter with multiple (>1) holders of the requested data.
system.membus.snoop_filter.hit_multi_snoops            0                       # Number of snoops hitting in the snoop filter with multiple (>1) holders of the requested data.
system.membus.snoop_filter.hit_single_requests        30276                       # Number of requests hitting in the snoop filter with a single holder of the requested data.
system.membus.snoop_filter.hit_single_snoops            0                       # Number of snoops hitting in the snoop filter with a single holder of the requested data.
system.membus.snoop_filter.tot_requests         69272                       # Total number of requests made to the snoop filter.
system.membus.snoop_filter.tot_snoops               0                       # Total number of snoops made to the snoop filter.
system.tol2bus.snoop_filter.hit_multi_requests           18                       # Number of requests hitting in the snoop filter with multiple (>1) holders of the requested data.
system.tol2bus.snoop_filter.hit_multi_snoops            4                       # Number of snoops hitting in the snoop filter with multiple (>1) holders of the requested data.
system.tol2bus.snoop_filter.hit_single_requests        60893                       # Number of requests hitting in the snoop filter with a single holder of the requested data.
system.tol2bus.snoop_filter.hit_single_snoops          580                       # Number of snoops hitting in the snoop filter with a single holder of the requested data.
system.tol2bus.snoop_filter.tot_requests       122806                       # Total number of requests made to the snoop filter.
system.tol2bus.snoop_filter.tot_snoops            584                       # Total number of snoops made to the snoop filter.
system.clk_domain.clock                           250                       # Clock period in ticks
system.cpu.branchPred.lookups                 2367318                       # Number of BP lookups
system.cpu.branchPred.condPredicted           1920642                       # Number of conditional branches predicted
system.cpu.branchPred.condIncorrect             55890                       # Number of conditional branches incorrect
system.cpu.branchPred.BTBLookups              1005292                       # Number of BTB lookups
system.cpu.branchPred.BTBHits                  929723                       # Number of BTB hits
system.cpu.branchPred.BTBHitPct             92.482881                       # BTB Hit Percentage
system.cpu.branchPred.RASUsed                  122360                       # Number of times the RAS was used to get a target.
system.cpu.branchPred.RASIncorrect                 10                       # Number of incorrect RAS predictions.
system.cpu.branchPred.indirectLookups           53287                       # Number of indirect predictor lookups.
system.cpu.branchPred.indirectHits              50153                       # Number of indirect target hits.
system.cpu.branchPred.indirectMisses             3134                       # Number of indirect misses.
system.cpu.branchPred.indirectMispredicted          446                       # Number of mispredicted indirect branches.
system.cpu.commit.commitSquashedInsts         1463825                       # The number of squashed insts skipped by commit
system.cpu.commit.commitNonSpecStalls              66                       # The number of times commit has been forced to stall to communicate backwards
system.cpu.commit.branchMispredicts             44965                       # The number of times a branch was mispredicted
system.cpu.commit.numCommittedDist::samples     10377535                       # Number of insts commited each cycle
system.cpu.commit.numCommittedDist::mean     1.816147                       # Number of insts commited each cycle
system.cpu.commit.numCommittedDist::stdev     2.661498                       # Number of insts commited each cycle
system.cpu.commit.numCommittedDist::underflows            0      0.00%      0.00% # Number of insts commited each cycle
system.cpu.commit.numCommittedDist::0         5709473     55.02%     55.02% # Number of insts commited each cycle
system.cpu.commit.numCommittedDist::1         1078582     10.39%     65.41% # Number of insts commited each cycle
system.cpu.commit.numCommittedDist::2          553807      5.34%     70.75% # Number of insts commited each cycle
system.cpu.commit.numCommittedDist::3          934441      9.00%     79.75% # Number of insts commited each cycle
system.cpu.commit.numCommittedDist::4          245294      2.36%     82.12% # Number of insts commited each cycle
system.cpu.commit.numCommittedDist::5          371677      3.58%     85.70% # Number of insts commited each cycle
system.cpu.commit.numCommittedDist::6          333293      3.21%     88.91% # Number of insts commited each cycle
system.cpu.commit.numCommittedDist::7          189449      1.83%     90.73% # Number of insts commited each cycle
system.cpu.commit.numCommittedDist::8          961519      9.27%    100.00% # Number of insts commited each cycle
system.cpu.commit.numCommittedDist::overflows            0      0.00%    100.00% # Number of insts commited each cycle
system.cpu.commit.numCommittedDist::min_value            0                       # Number of insts commited each cycle
system.cpu.commit.numCommittedDist::max_value            8                       # Number of insts commited each cycle
system.cpu.commit.numCommittedDist::total     10377535                       # Number of insts commited each cycle
system.cpu.commit.instsCommitted             10000001                       # Number of instructions committed
system.cpu.commit.opsCommitted               18847133                       # Number of ops (including micro ops) committed
system.cpu.commit.memRefs                     3855806                       # Number of memory references committed
system.cpu.commit.loads                       2239682                       # Number of loads committed
system.cpu.commit.amos                              0                       # Number of atomic instructions committed
system.cpu.commit.membars                          32                       # Number of memory barriers committed
system.cpu.commit.branches                    2096089                       # Number of branches committed
system.cpu.commit.vector                            0                       # Number of committed Vector instructions.
system.cpu.commit.floating                     432909                       # Number of committed floating point instructions.
system.cpu.commit.integer                    18491276                       # Number of committed integer instructions.
system.cpu.commit.functionCalls                105987                       # Number of function calls committed.
system.cpu.commit.committedInstType_0::No_OpClass       186599      0.99%      0.99% # Class of committed instruction
system.cpu.commit.committedInstType_0::IntAlu     14415807     76.49%     77.48% # Class of committed instruction
system.cpu.commit.committedInstType_0::IntMult        83587      0.44%     77.92% # Class of committed instruction
system.cpu.commit.committedInstType_0::IntDiv       113626      0.60%     78.52% # Class of committed instruction
system.cpu.commit.committedInstType_0::FloatAdd        42444      0.23%     78.75% # Class of committed instruction
system.cpu.commit.committedInstType_0::FloatCmp            0      0.00%     78.75% # Class of committed instruction
system.cpu.commit.committedInstType_0::FloatCvt           32      0.00%     78.75% # Class of committed instruction
system.cpu.commit.committedInstType_0::FloatMult            0      0.00%     78.75% # Class of committed instruction
system.cpu.commit.committedInstType_0::FloatMultAcc            0      0.00%     78.75% # Class of committed instruction
system.cpu.commit.committedInstType_0::FloatDiv            0      0.00%     78.75% # Class of committed instruction
system.cpu.commit.committedInstType_0::FloatMisc            0      0.00%     78.75% # Class of committed instruction
system.cpu.commit.committedInstType_0::FloatSqrt            0      0.00%     78.75% # Class of committed instruction
system.cpu.commit.committedInstType_0::SimdAdd          398      0.00%     78.75% # Class of committed instruction
system.cpu.commit.committedInstType_0::SimdAddAcc            0      0.00%     78.75% # Class of committed instruction
system.cpu.commit.committedInstType_0::SimdAlu        11366      0.06%     78.81% # Class of committed instruction
system.cpu.commit.committedInstType_0::SimdCmp           20      0.00%     78.81% # Class of committed instruction
system.cpu.commit.committedInstType_0::SimdCvt        23970      0.13%     78.94% # Class of committed instruction
system.cpu.commit.committedInstType_0::SimdMisc       113367      0.60%     79.54% # Class of committed instruction
system.cpu.commit.committedInstType_0::SimdMult            0      0.00%     79.54% # Class of committed instruction
system.cpu.commit.committedInstType_0::SimdMultAcc            0      0.00%     79.54% # Class of committed instruction
system.cpu.commit.committedInstType_0::SimdShift          105      0.00%     79.54% # Class of committed instruction
system.cpu.commit.committedInstType_0::SimdShiftAcc            0      0.00%     79.54% # Class of committed instruction
system.cpu.commit.committedInstType_0::SimdDiv            0      0.00%     79.54% # Class of committed instruction
system.cpu.commit.committedInstType_0::SimdSqrt            0      0.00%     79.54% # Class of committed instruction
system.cpu.commit.committedInstType_0::SimdFloatAdd            0      0.00%     79.54% # Class of committed instruction
system.cpu.commit.committedInstType_0::SimdFloatAlu            0      0.00%     79.54% # Class of committed instruction
system.cpu.commit.committedInstType_0::SimdFloatCmp            0      0.00%     79.54% # Class of committed instruction
system.cpu.commit.committedInstType_0::SimdFloatCvt            4      0.00%     79.54% # Class of committed instruction
system.cpu.commit.committedInstType_0::SimdFloatDiv            0      0.00%     79.54% # Class of committed instruction
system.cpu.commit.committedInstType_0::SimdFloatMisc            0      0.00%     79.54% # Class of committed instruction
system.cpu.commit.committedInstType_0::SimdFloatMult            2      0.00%     79.54% # Class of committed instruction
system.cpu.commit.committedInstType_0::SimdFloatMultAcc            0      0.00%     79.54% # Class of committed instruction
system.cpu.commit.committedInstType_0::SimdFloatSqrt            0      0.00%     79.54% # Class of committed instruction
system.cpu.commit.committedInstType_0::SimdReduceAdd            0      0.00%     79.54% # Class of committed instruction
system.cpu.commit.committedInstType_0::SimdReduceAlu            0      0.00%     79.54% # Class of committed instruction
system.cpu.commit.committedInstType_0::SimdReduceCmp            0      0.00%     79.54% # Class of committed instruction
system.cpu.commit.committedInstType_0::SimdFloatReduceAdd            0      0.00%     79.54% # Class of committed instruction
system.cpu.commit.committedInstType_0::SimdFloatReduceCmp            0      0.00%     79.54% # Class of committed instruction
system.cpu.commit.committedInstType_0::SimdAes            0      0.00%     79.54% # Class of committed instruction
system.cpu.commit.committedInstType_0::SimdAesMix            0      0.00%     79.54% # Class of committed instruction
system.cpu.commit.committedInstType_0::SimdSha1Hash            0      0.00%     79.54% # Class of committed instruction
system.cpu.commit.committedInstType_0::SimdSha1Hash2            0      0.00%     79.54% # Class of committed instruction
system.cpu.commit.committedInstType_0::SimdSha256Hash            0      0.00%     79.54% # Class of committed instruction
system.cpu.commit.committedInstType_0::SimdSha256Hash2            0      0.00%     79.54% # Class of committed instruction
system.cpu.commit.committedInstType_0::SimdShaSigma2            0      0.00%     79.54% # Class of committed instruction
system.cpu.commit.committedInstType_0::SimdShaSigma3            0      0.00%     79.54% # Class of committed instruction
system.cpu.commit.committedInstType_0::SimdPredAlu            0      0.00%     79.54% # Class of committed instruction
system.cpu.commit.committedInstType_0::MemRead      2173523     11.53%     91.07% # Class of committed instruction
system.cpu.commit.committedInstType_0::MemWrite      1467717      7.79%     98.86% # Class of committed instruction
system.cpu.commit.committedInstType_0::FloatMemRead        66159      0.35%     99.21% # Class of committed instruction
system.cpu.commit.committedInstType_0::FloatMemWrite       148407      0.79%    100.00% # Class of committed instruction
system.cpu.commit.committedInstType_0::IprAccess            0      0.00%    100.00% # Class of committed instruction
system.cpu.commit.committedInstType_0::InstPrefetch            0      0.00%    100.00% # Class of committed instruction
system.cpu.commit.committedInstType_0::total     18847133                       # Class of committed instruction
system.cpu.commit.commitEligibleSamples        961519                       # number cycles where commit BW limit reached
system.cpu.dcache.demand_hits::.cpu.data      3458606                       # number of demand (read+write) hits
system.cpu.dcache.demand_hits::total          3458606                       # number of demand (read+write) hits
system.cpu.dcache.overall_hits::.cpu.data      3458606                       # number of overall hits
system.cpu.dcache.overall_hits::total         3458606                       # number of overall hits
system.cpu.dcache.demand_misses::.cpu.data        69982                       # number of demand (read+write) misses
system.cpu.dcache.demand_misses::total          69982                       # number of demand (read+write) misses
system.cpu.dcache.overall_misses::.cpu.data        69982                       # number of overall misses
system.cpu.dcache.overall_misses::total         69982                       # number of overall misses
system.cpu.dcache.demand_miss_latency::.cpu.data   4427683999                       # number of demand (read+write) miss cycles
system.cpu.dcache.demand_miss_latency::total   4427683999                       # number of demand (read+write) miss cycles
system.cpu.dcache.overall_miss_latency::.cpu.data   4427683999                       # number of overall miss cycles
system.cpu.dcache.overall_miss_latency::total   4427683999                       # number of overall miss cycles
system.cpu.dcache.demand_accesses::.cpu.data      3528588                       # number of demand (read+write) accesses
system.cpu.dcache.demand_accesses::total      3528588                       # number of demand (read+write) accesses
system.cpu.dcache.overall_accesses::.cpu.data      3528588                       # number of overall (read+write) accesses
system.cpu.dcache.overall_accesses::total      3528588                       # number of overall (read+write) accesses
system.cpu.dcache.demand_miss_rate::.cpu.data     0.019833                       # miss rate for demand accesses
system.cpu.dcache.demand_miss_rate::total     0.019833                       # miss rate for demand accesses
system.cpu.dcache.overall_miss_rate::.cpu.data     0.019833                       # miss rate for overall accesses
system.cpu.dcache.overall_miss_rate::total     0.019833                       # miss rate for overall accesses
system.cpu.dcache.demand_avg_miss_latency::.cpu.data 63268.897702                       # average overall miss latency
system.cpu.dcache.demand_avg_miss_latency::total 63268.897702                       # average overall miss latency
system.cpu.dcache.overall_avg_miss_latency::.cpu.data 63268.897702                       # average overall miss latency
system.cpu.dcache.overall_avg_miss_latency::total 63268.897702                       # average overall miss latency
system.cpu.dcache.blocked_cycles::no_mshrs        17171                       # number of cycles access was blocked
system.cpu.dcache.blocked_cycles::no_targets            0                       # number of cycles access was blocked
system.cpu.dcache.blocked::no_mshrs               398                       # number of cycles access was blocked
system.cpu.dcache.blocked::no_targets               0                       # number of cycles access was blocked
system.cpu.dcache.avg_blocked_cycles::no_mshrs    43.143216                       # average number of cycles each access was blocked
system.cpu.dcache.avg_blocked_cycles::no_targets          nan                       # average number of cycles each access was blocked
system.cpu.dcache.writebacks::.writebacks        40509                       # number of writebacks
system.cpu.dcache.writebacks::total             40509                       # number of writebacks
system.cpu.dcache.demand_mshr_hits::.cpu.data        25298                       # number of demand (read+write) MSHR hits
system.cpu.dcache.demand_mshr_hits::total        25298                       # number of demand (read+write) MSHR hits
system.cpu.dcache.overall_mshr_hits::.cpu.data        25298                       # number of overall MSHR hits
system.cpu.dcache.overall_mshr_hits::total        25298                       # number of overall MSHR hits
system.cpu.dcache.demand_mshr_misses::.cpu.data        44684                       # number of demand (read+write) MSHR misses
system.cpu.dcache.demand_mshr_misses::total        44684                       # number of demand (read+write) MSHR misses
system.cpu.dcache.overall_mshr_misses::.cpu.data        44684                       # number of overall MSHR misses
system.cpu.dcache.overall_mshr_misses::total        44684                       # number of overall MSHR misses
system.cpu.dcache.demand_mshr_miss_latency::.cpu.data   3137124999                       # number of demand (read+write) MSHR miss cycles
system.cpu.dcache.demand_mshr_miss_latency::total   3137124999                       # number of demand (read+write) MSHR miss cycles
system.cpu.dcache.overall_mshr_miss_latency::.cpu.data   3137124999                       # number of overall MSHR miss cycles
system.cpu.dcache.overall_mshr_miss_latency::total   3137124999                       # number of overall MSHR miss cycles
system.cpu.dcache.demand_mshr_miss_rate::.cpu.data     0.012663                       # mshr miss rate for demand accesses
system.cpu.dcache.demand_mshr_miss_rate::total     0.012663                       # mshr miss rate for demand accesses
system.cpu.dcache.overall_mshr_miss_rate::.cpu.data     0.012663                       # mshr miss rate for overall accesses
system.cpu.dcache.overall_mshr_miss_rate::total     0.012663                       # mshr miss rate for overall accesses
system.cpu.dcache.demand_avg_mshr_miss_latency::.cpu.data 70206.897301                       # average overall mshr miss latency
system.cpu.dcache.demand_avg_mshr_miss_latency::total 70206.897301                       # average overall mshr miss latency
system.cpu.dcache.overall_avg_mshr_miss_latency::.cpu.data 70206.897301                       # average overall mshr miss latency
system.cpu.dcache.overall_avg_mshr_miss_latency::total 70206.897301                       # average overall mshr miss latency
system.cpu.dcache.replacements                  44169                       # number of replacements
system.cpu.dcache.ReadReq_hits::.cpu.data      1877517                       # number of ReadReq hits
system.cpu.dcache.ReadReq_hits::total         1877517                       # number of ReadReq hits
system.cpu.dcache.ReadReq_misses::.cpu.data        34945                       # number of ReadReq misses
system.cpu.dcache.ReadReq_misses::total         34945                       # number of ReadReq misses
system.cpu.dcache.ReadReq_miss_latency::.cpu.data   1917403000                       # number of ReadReq miss cycles
system.cpu.dcache.ReadReq_miss_latency::total   1917403000                       # number of ReadReq miss cycles
system.cpu.dcache.ReadReq_accesses::.cpu.data      1912462                       # number of ReadReq accesses(hits+misses)
system.cpu.dcache.ReadReq_accesses::total      1912462                       # number of ReadReq accesses(hits+misses)
system.cpu.dcache.ReadReq_miss_rate::.cpu.data     0.018272                       # miss rate for ReadReq accesses
system.cpu.dcache.ReadReq_miss_rate::total     0.018272                       # miss rate for ReadReq accesses
system.cpu.dcache.ReadReq_avg_miss_latency::.cpu.data 54869.165832                       # average ReadReq miss latency
system.cpu.dcache.ReadReq_avg_miss_latency::total 54869.165832                       # average ReadReq miss latency
system.cpu.dcache.ReadReq_mshr_hits::.cpu.data        22724                       # number of ReadReq MSHR hits
system.cpu.dcache.ReadReq_mshr_hits::total        22724                       # number of ReadReq MSHR hits
system.cpu.dcache.ReadReq_mshr_misses::.cpu.data        12221                       # number of ReadReq MSHR misses
system.cpu.dcache.ReadReq_mshr_misses::total        12221                       # number of ReadReq MSHR misses
system.cpu.dcache.ReadReq_mshr_miss_latency::.cpu.data    706749000                       # number of ReadReq MSHR miss cycles
system.cpu.dcache.ReadReq_mshr_miss_latency::total    706749000                       # number of ReadReq MSHR miss cycles
system.cpu.dcache.ReadReq_mshr_miss_rate::.cpu.data     0.006390                       # mshr miss rate for ReadReq accesses
system.cpu.dcache.ReadReq_mshr_miss_rate::total     0.006390                       # mshr miss rate for ReadReq accesses
system.cpu.dcache.ReadReq_avg_mshr_miss_latency::.cpu.data 57830.701252                       # average ReadReq mshr miss latency
system.cpu.dcache.ReadReq_avg_mshr_miss_latency::total 57830.701252                       # average ReadReq mshr miss latency
system.cpu.dcache.WriteReq_hits::.cpu.data      1581089                       # number of WriteReq hits
system.cpu.dcache.WriteReq_hits::total        1581089                       # number of WriteReq hits
system.cpu.dcache.WriteReq_misses::.cpu.data        35037                       # number of WriteReq misses
system.cpu.dcache.WriteReq_misses::total        35037                       # number of WriteReq misses
system.cpu.dcache.WriteReq_miss_latency::.cpu.data   2510280999                       # number of WriteReq miss cycles
system.cpu.dcache.WriteReq_miss_latency::total   2510280999                       # number of WriteReq miss cycles
system.cpu.dcache.WriteReq_accesses::.cpu.data      1616126                       # number of WriteReq accesses(hits+misses)
system.cpu.dcache.WriteReq_accesses::total      1616126                       # number of WriteReq accesses(hits+misses)
system.cpu.dcache.WriteReq_miss_rate::.cpu.data     0.021680                       # miss rate for WriteReq accesses
system.cpu.dcache.WriteReq_miss_rate::total     0.021680                       # miss rate for WriteReq accesses
system.cpu.dcache.WriteReq_avg_miss_latency::.cpu.data 71646.573594                       # average WriteReq miss latency
system.cpu.dcache.WriteReq_avg_miss_latency::total 71646.573594                       # average WriteReq miss latency
system.cpu.dcache.WriteReq_mshr_hits::.cpu.data         2574                       # number of WriteReq MSHR hits
system.cpu.dcache.WriteReq_mshr_hits::total         2574                       # number of WriteReq MSHR hits
system.cpu.dcache.WriteReq_mshr_misses::.cpu.data        32463                       # number of WriteReq MSHR misses
system.cpu.dcache.WriteReq_mshr_misses::total        32463                       # number of WriteReq MSHR misses
system.cpu.dcache.WriteReq_mshr_miss_latency::.cpu.data   2430375999                       # number of WriteReq MSHR miss cycles
system.cpu.dcache.WriteReq_mshr_miss_latency::total   2430375999                       # number of WriteReq MSHR miss cycles
system.cpu.dcache.WriteReq_mshr_miss_rate::.cpu.data     0.020087                       # mshr miss rate for WriteReq accesses
system.cpu.dcache.WriteReq_mshr_miss_rate::total     0.020087                       # mshr miss rate for WriteReq accesses
system.cpu.dcache.WriteReq_avg_mshr_miss_latency::.cpu.data 74866.032067                       # average WriteReq mshr miss latency
system.cpu.dcache.WriteReq_avg_mshr_miss_latency::total 74866.032067                       # average WriteReq mshr miss latency
system.cpu.dcache.power_state.pwrStateResidencyTicks::UNDEFINED   5339521000                       # Cumulative time (in ticks) in various power states
system.cpu.dcache.tags.tagsinuse           509.278279                       # Cycle average of tags in use
system.cpu.dcache.tags.total_refs             3503290                       # Total number of references to valid blocks.
system.cpu.dcache.tags.sampled_refs             44681                       # Sample count of references to valid blocks.
system.cpu.dcache.tags.avg_refs             78.406705                       # Average number of references to valid blocks.
system.cpu.dcache.tags.warmup_cycle            163000                       # Cycle when the warmup percentage was hit.
system.cpu.dcache.tags.occ_blocks::.cpu.data   509.278279                       # Average occupied blocks per requestor
system.cpu.dcache.tags.occ_percent::.cpu.data     0.994684                       # Average percentage of cache occupancy
system.cpu.dcache.tags.occ_percent::total     0.994684                       # Average percentage of cache occupancy
system.cpu.dcache.tags.occ_task_id_blocks::1024          512                       # Occupied blocks per task id
system.cpu.dcache.tags.age_task_id_blocks_1024::0           76                       # Occupied blocks per task id
system.cpu.dcache.tags.age_task_id_blocks_1024::1          331                       # Occupied blocks per task id
system.cpu.dcache.tags.age_task_id_blocks_1024::2           75                       # Occupied blocks per task id
system.cpu.dcache.tags.age_task_id_blocks_1024::3           30                       # Occupied blocks per task id
system.cpu.dcache.tags.occ_task_id_percent::1024            1                       # Percentage of cache occupancy per task id
system.cpu.dcache.tags.tag_accesses           7101857                       # Number of tag accesses
system.cpu.dcache.tags.data_accesses          7101857                       # Number of data accesses
system.cpu.dcache.tags.power_state.pwrStateResidencyTicks::UNDEFINED   5339521000                       # Cumulative time (in ticks) in various power states
system.cpu.decode.idleCycles                  1995067                       # Number of cycles decode is idle
system.cpu.decode.blockedCycles               5273199                       # Number of cycles decode is blocked
system.cpu.decode.runCycles                   2984646                       # Number of cycles decode is running
system.cpu.decode.unblockCycles                292577                       # Number of cycles decode is unblocking
system.cpu.decode.squashCycles                  45907                       # Number of cycles decode is squashing
system.cpu.decode.branchResolved               914213                       # Number of times decode resolved a  branch
system.cpu.decode.branchMispred                 11138                       # Number of times decode detected a branch misprediction
system.cpu.decode.decodedInsts               20831973                       # Number of instructions handled by decode
system.cpu.decode.squashedInsts                 60632                       # Number of squashed instructions handled by decode
system.cpu.dtb.rdAccesses                     2381474                       # TLB accesses on read requests
system.cpu.dtb.wrAccesses                     1648926                       # TLB accesses on write requests
system.cpu.dtb.rdMisses                           630                       # TLB misses on read requests
system.cpu.dtb.wrMisses                         18315                       # TLB misses on write requests
system.cpu.dtb.walker.power_state.pwrStateResidencyTicks::UNDEFINED   5339521000                       # Cumulative time (in ticks) in various power states
system.cpu.dtb_walker_cache.blocked_cycles::no_mshrs            0                       # number of cycles access was blocked
system.cpu.dtb_walker_cache.blocked_cycles::no_targets            0                       # number of cycles access was blocked
system.cpu.dtb_walker_cache.blocked::no_mshrs            0                       # number of cycles access was blocked
system.cpu.dtb_walker_cache.blocked::no_targets            0                       # number of cycles access was blocked
system.cpu.dtb_walker_cache.avg_blocked_cycles::no_mshrs          nan                       # average number of cycles each access was blocked
system.cpu.dtb_walker_cache.avg_blocked_cycles::no_targets          nan                       # average number of cycles each access was blocked
system.cpu.dtb_walker_cache.replacements            0                       # number of replacements
system.cpu.dtb_walker_cache.power_state.pwrStateResidencyTicks::UNDEFINED   5339521000                       # Cumulative time (in ticks) in various power states
system.cpu.dtb_walker_cache.tags.tagsinuse            0                       # Cycle average of tags in use
system.cpu.dtb_walker_cache.tags.total_refs            0                       # Total number of references to valid blocks.
system.cpu.dtb_walker_cache.tags.sampled_refs            0                       # Sample count of references to valid blocks.
system.cpu.dtb_walker_cache.tags.avg_refs          nan                       # Average number of references to valid blocks.
system.cpu.dtb_walker_cache.tags.warmup_cycle            0                       # Cycle when the warmup percentage was hit.
system.cpu.dtb_walker_cache.tags.tag_accesses            0                       # Number of tag accesses
system.cpu.dtb_walker_cache.tags.data_accesses            0                       # Number of data accesses
system.cpu.dtb_walker_cache.tags.power_state.pwrStateResidencyTicks::UNDEFINED   5339521000                       # Cumulative time (in ticks) in various power states
system.cpu.fetch.icacheStallCycles            2214301                       # Number of cycles fetch is stalled on an Icache miss
system.cpu.fetch.insts                       11347754                       # Number of instructions fetch has processed
system.cpu.fetch.branches                     2367318                       # Number of branches that fetch encountered
system.cpu.fetch.predictedBranches            1102236                       # Number of branches that fetch has predicted taken
system.cpu.fetch.cycles                       8317992                       # Number of cycles fetch has run and was not squashing or blocked
system.cpu.fetch.squashCycles                  114074                       # Number of cycles fetch has spent squashing
system.cpu.fetch.miscStallCycles                  294                       # Number of cycles fetch has spent waiting on interrupts,or bad addresses, or out of MSHRs
system.cpu.fetch.pendingTrapStallCycles          1750                       # Number of stall cycles due to pending traps
system.cpu.fetch.pendingQuiesceStallCycles            9                       # Number of stall cycles due to pending quiesce instructions
system.cpu.fetch.icacheWaitRetryStallCycles           13                       # Number of stall cycles due to full MSHR
system.cpu.fetch.cacheLines                   1754181                       # Number of cache lines fetched
system.cpu.fetch.icacheSquashes                 16503                       # Number of outstanding Icache misses that were squashed
system.cpu.fetch.nisnDist::samples           10591396                       # Number of instructions fetched each cycle (Total)
system.cpu.fetch.nisnDist::mean              2.027035                       # Number of instructions fetched each cycle (Total)
system.cpu.fetch.nisnDist::stdev             3.170375                       # Number of instructions fetched each cycle (Total)
system.cpu.fetch.nisnDist::underflows               0      0.00%      0.00% # Number of instructions fetched each cycle (Total)
system.cpu.fetch.nisnDist::0                  6999412     66.09%     66.09% # Number of instructions fetched each cycle (Total)
system.cpu.fetch.nisnDist::1                   162744      1.54%     67.62% # Number of instructions fetched each cycle (Total)
system.cpu.fetch.nisnDist::2                   389028      3.67%     71.30% # Number of instructions fetched each cycle (Total)
system.cpu.fetch.nisnDist::3                   305623      2.89%     74.18% # Number of instructions fetched each cycle (Total)
system.cpu.fetch.nisnDist::4                   210603      1.99%     76.17% # Number of instructions fetched each cycle (Total)
system.cpu.fetch.nisnDist::5                   238182      2.25%     78.42% # Number of instructions fetched each cycle (Total)
system.cpu.fetch.nisnDist::6                   257515      2.43%     80.85% # Number of instructions fetched each cycle (Total)
system.cpu.fetch.nisnDist::7                   193263      1.82%     82.67% # Number of instructions fetched each cycle (Total)
system.cpu.fetch.nisnDist::8                  1835026     17.33%    100.00% # Number of instructions fetched each cycle (Total)
system.cpu.fetch.nisnDist::overflows                0      0.00%    100.00% # Number of instructions fetched each cycle (Total)
system.cpu.fetch.nisnDist::min_value                0                       # Number of instructions fetched each cycle (Total)
system.cpu.fetch.nisnDist::max_value                8                       # Number of instructions fetched each cycle (Total)
system.cpu.fetch.nisnDist::total             10591396                       # Number of instructions fetched each cycle (Total)
system.cpu.fetch.branchRate                  0.221679                       # Number of branch fetches per cycle
system.cpu.fetch.rate                        1.062619                       # Number of inst fetches per cycle
system.cpu.icache.demand_hits::.cpu.inst      1736510                       # number of demand (read+write) hits
system.cpu.icache.demand_hits::total          1736510                       # number of demand (read+write) hits
system.cpu.icache.overall_hits::.cpu.inst      1736510                       # number of overall hits
system.cpu.icache.overall_hits::total         1736510                       # number of overall hits
system.cpu.icache.demand_misses::.cpu.inst        17670                       # number of demand (read+write) misses
system.cpu.icache.demand_misses::total          17670                       # number of demand (read+write) misses
system.cpu.icache.overall_misses::.cpu.inst        17670                       # number of overall misses
system.cpu.icache.overall_misses::total         17670                       # number of overall misses
system.cpu.icache.demand_miss_latency::.cpu.inst    327214500                       # number of demand (read+write) miss cycles
system.cpu.icache.demand_miss_latency::total    327214500                       # number of demand (read+write) miss cycles
system.cpu.icache.overall_miss_latency::.cpu.inst    327214500                       # number of overall miss cycles
system.cpu.icache.overall_miss_latency::total    327214500                       # number of overall miss cycles
system.cpu.icache.demand_accesses::.cpu.inst      1754180                       # number of demand (read+write) accesses
system.cpu.icache.demand_accesses::total      1754180                       # number of demand (read+write) accesses
system.cpu.icache.overall_accesses::.cpu.inst      1754180                       # number of overall (read+write) accesses
system.cpu.icache.overall_accesses::total      1754180                       # number of overall (read+write) accesses
system.cpu.icache.demand_miss_rate::.cpu.inst     0.010073                       # miss rate for demand accesses
system.cpu.icache.demand_miss_rate::total     0.010073                       # miss rate for demand accesses
system.cpu.icache.overall_miss_rate::.cpu.inst     0.010073                       # miss rate for overall accesses
system.cpu.icache.overall_miss_rate::total     0.010073                       # miss rate for overall accesses
system.cpu.icache.demand_avg_miss_latency::.cpu.inst 18518.081494                       # average overall miss latency
system.cpu.icache.demand_avg_miss_latency::total 18518.081494                       # average overall miss latency
system.cpu.icache.overall_avg_miss_latency::.cpu.inst 18518.081494                       # average overall miss latency
system.cpu.icache.overall_avg_miss_latency::total 18518.081494                       # average overall miss latency
system.cpu.icache.blocked_cycles::no_mshrs          359                       # number of cycles access was blocked
system.cpu.icache.blocked_cycles::no_targets            0                       # number of cycles access was blocked
system.cpu.icache.blocked::no_mshrs                 6                       # number of cycles access was blocked
system.cpu.icache.blocked::no_targets               0                       # number of cycles access was blocked
system.cpu.icache.avg_blocked_cycles::no_mshrs    59.833333                       # average number of cycles each access was blocked
system.cpu.icache.avg_blocked_cycles::no_targets          nan                       # average number of cycles each access was blocked
system.cpu.icache.writebacks::.writebacks        16722                       # number of writebacks
system.cpu.icache.writebacks::total             16722                       # number of writebacks
system.cpu.icache.demand_mshr_hits::.cpu.inst          439                       # number of demand (read+write) MSHR hits
system.cpu.icache.demand_mshr_hits::total          439                       # number of demand (read+write) MSHR hits
system.cpu.icache.overall_mshr_hits::.cpu.inst          439                       # number of overall MSHR hits
system.cpu.icache.overall_mshr_hits::total          439                       # number of overall MSHR hits
system.cpu.icache.demand_mshr_misses::.cpu.inst        17231                       # number of demand (read+write) MSHR misses
system.cpu.icache.demand_mshr_misses::total        17231                       # number of demand (read+write) MSHR misses
system.cpu.icache.overall_mshr_misses::.cpu.inst        17231                       # number of overall MSHR misses
system.cpu.icache.overall_mshr_misses::total        17231                       # number of overall MSHR misses
system.cpu.icache.demand_mshr_miss_latency::.cpu.inst    286760500                       # number of demand (read+write) MSHR miss cycles
system.cpu.icache.demand_mshr_miss_latency::total    286760500                       # number of demand (read+write) MSHR miss cycles
system.cpu.icache.overall_mshr_miss_latency::.cpu.inst    286760500                       # number of overall MSHR miss cycles
system.cpu.icache.overall_mshr_miss_latency::total    286760500                       # number of overall MSHR miss cycles
system.cpu.icache.demand_mshr_miss_rate::.cpu.inst     0.009823                       # mshr miss rate for demand accesses
system.cpu.icache.demand_mshr_miss_rate::total     0.009823                       # mshr miss rate for demand accesses
system.cpu.icache.overall_mshr_miss_rate::.cpu.inst     0.009823                       # mshr miss rate for overall accesses
system.cpu.icache.overall_mshr_miss_rate::total     0.009823                       # mshr miss rate for overall accesses
system.cpu.icache.demand_avg_mshr_miss_latency::.cpu.inst 16642.127561                       # average overall mshr miss latency
system.cpu.icache.demand_avg_mshr_miss_latency::total 16642.127561                       # average overall mshr miss latency
system.cpu.icache.overall_avg_mshr_miss_latency::.cpu.inst 16642.127561                       # average overall mshr miss latency
system.cpu.icache.overall_avg_mshr_miss_latency::total 16642.127561                       # average overall mshr miss latency
system.cpu.icache.replacements                  16722                       # number of replacements
system.cpu.icache.ReadReq_hits::.cpu.inst      1736510                       # number of ReadReq hits
system.cpu.icache.ReadReq_hits::total         1736510                       # number of ReadReq hits
system.cpu.icache.ReadReq_misses::.cpu.inst        17670                       # number of ReadReq misses
system.cpu.icache.ReadReq_misses::total         17670                       # number of ReadReq misses
system.cpu.icache.ReadReq_miss_latency::.cpu.inst    327214500                       # number of ReadReq miss cycles
system.cpu.icache.ReadReq_miss_latency::total    327214500                       # number of ReadReq miss cycles
system.cpu.icache.ReadReq_accesses::.cpu.inst      1754180                       # number of ReadReq accesses(hits+misses)
system.cpu.icache.ReadReq_accesses::total      1754180                       # number of ReadReq accesses(hits+misses)
system.cpu.icache.ReadReq_miss_rate::.cpu.inst     0.010073                       # miss rate for ReadReq accesses
system.cpu.icache.ReadReq_miss_rate::total     0.010073                       # miss rate for ReadReq accesses
system.cpu.icache.ReadReq_avg_miss_latency::.cpu.inst 18518.081494                       # average ReadReq miss latency
system.cpu.icache.ReadReq_avg_miss_latency::total 18518.081494                       # average ReadReq miss latency
system.cpu.icache.ReadReq_mshr_hits::.cpu.inst          439                       # number of ReadReq MSHR hits
system.cpu.icache.ReadReq_mshr_hits::total          439                       # number of ReadReq MSHR hits
system.cpu.icache.ReadReq_mshr_misses::.cpu.inst        17231                       # number of ReadReq MSHR misses
system.cpu.icache.ReadReq_mshr_misses::total        17231                       # number of ReadReq MSHR misses
system.cpu.icache.ReadReq_mshr_miss_latency::.cpu.inst    286760500                       # number of ReadReq MSHR miss cycles
system.cpu.icache.ReadReq_mshr_miss_latency::total    286760500                       # number of ReadReq MSHR miss cycles
system.cpu.icache.ReadReq_mshr_miss_rate::.cpu.inst     0.009823                       # mshr miss rate for ReadReq accesses
system.cpu.icache.ReadReq_mshr_miss_rate::total     0.009823                       # mshr miss rate for ReadReq accesses
system.cpu.icache.ReadReq_avg_mshr_miss_latency::.cpu.inst 16642.127561                       # average ReadReq mshr miss latency
system.cpu.icache.ReadReq_avg_mshr_miss_latency::total 16642.127561                       # average ReadReq mshr miss latency
system.cpu.icache.power_state.pwrStateResidencyTicks::UNDEFINED   5339521000                       # Cumulative time (in ticks) in various power states
system.cpu.icache.tags.tagsinuse           503.026489                       # Cycle average of tags in use
system.cpu.icache.tags.total_refs             1753741                       # Total number of references to valid blocks.
system.cpu.icache.tags.sampled_refs             17231                       # Sample count of references to valid blocks.
system.cpu.icache.tags.avg_refs            101.778249                       # Average number of references to valid blocks.
system.cpu.icache.tags.warmup_cycle             79500                       # Cycle when the warmup percentage was hit.
system.cpu.icache.tags.occ_blocks::.cpu.inst   503.026489                       # Average occupied blocks per requestor
system.cpu.icache.tags.occ_percent::.cpu.inst     0.982474                       # Average percentage of cache occupancy
system.cpu.icache.tags.occ_percent::total     0.982474                       # Average percentage of cache occupancy
system.cpu.icache.tags.occ_task_id_blocks::1024          506                       # Occupied blocks per task id
system.cpu.icache.tags.age_task_id_blocks_1024::0            2                       # Occupied blocks per task id
system.cpu.icache.tags.age_task_id_blocks_1024::2            2                       # Occupied blocks per task id
system.cpu.icache.tags.age_task_id_blocks_1024::3          502                       # Occupied blocks per task id
system.cpu.icache.tags.occ_task_id_percent::1024     0.988281                       # Percentage of cache occupancy per task id
system.cpu.icache.tags.tag_accesses           3525591                       # Number of tag accesses
system.cpu.icache.tags.data_accesses          3525591                       # Number of data accesses
system.cpu.icache.tags.power_state.pwrStateResidencyTicks::UNDEFINED   5339521000                       # Cumulative time (in ticks) in various power states
system.cpu.interrupts.clk_domain.clock           8000                       # Clock period in ticks
system.cpu.itb.rdAccesses                           0                       # TLB accesses on read requests
system.cpu.itb.wrAccesses                     1754441                       # TLB accesses on write requests
system.cpu.itb.rdMisses                             0                       # TLB misses on read requests
system.cpu.itb.wrMisses                           397                       # TLB misses on write requests
system.cpu.itb.walker.power_state.pwrStateResidencyTicks::UNDEFINED   5339521000                       # Cumulative time (in ticks) in various power states
system.cpu.itb_walker_cache.blocked_cycles::no_mshrs            0                       # number of cycles access was blocked
system.cpu.itb_walker_cache.blocked_cycles::no_targets            0                       # number of cycles access was blocked
system.cpu.itb_walker_cache.blocked::no_mshrs            0                       # number of cycles access was blocked
system.cpu.itb_walker_cache.blocked::no_targets            0                       # number of cycles access was blocked
system.cpu.itb_walker_cache.avg_blocked_cycles::no_mshrs          nan                       # average number of cycles each access was blocked
system.cpu.itb_walker_cache.avg_blocked_cycles::no_targets          nan                       # average number of cycles each access was blocked
system.cpu.itb_walker_cache.replacements            0                       # number of replacements
system.cpu.itb_walker_cache.power_state.pwrStateResidencyTicks::UNDEFINED   5339521000                       # Cumulative time (in ticks) in various power states
system.cpu.itb_walker_cache.tags.tagsinuse            0                       # Cycle average of tags in use
system.cpu.itb_walker_cache.tags.total_refs            0                       # Total number of references to valid blocks.
system.cpu.itb_walker_cache.tags.sampled_refs            0                       # Sample count of references to valid blocks.
system.cpu.itb_walker_cache.tags.avg_refs          nan                       # Average number of references to valid blocks.
system.cpu.itb_walker_cache.tags.warmup_cycle            0                       # Cycle when the warmup percentage was hit.
system.cpu.itb_walker_cache.tags.tag_accesses            0                       # Number of tag accesses
system.cpu.itb_walker_cache.tags.data_accesses            0                       # Number of data accesses
system.cpu.itb_walker_cache.tags.power_state.pwrStateResidencyTicks::UNDEFINED   5339521000                       # Cumulative time (in ticks) in various power states
system.cpu.lsq0.forwLoads                      463306                       # Number of loads that had data forwarded from stores
system.cpu.lsq0.squashedLoads                  178278                       # Number of loads squashed
system.cpu.lsq0.ignoredResponses                 5681                       # Number of memory responses ignored because the instruction is squashed
system.cpu.lsq0.memOrderViolation                 194                       # Number of memory ordering violations
system.cpu.lsq0.squashedStores                  72355                       # Number of stores squashed
system.cpu.lsq0.rescheduledLoads                 5259                       # Number of loads that were rescheduled
system.cpu.lsq0.blockedByCache                    295                       # Number of times an access to memory failed due to the cache being blocked
system.cpu.power_state.pwrStateResidencyTicks::ON   5339521000                       # Cumulative time (in ticks) in various power states
system.cpu.rename.squashCycles                  45907                       # Number of cycles rename is squashing
system.cpu.rename.idleCycles                  2149794                       # Number of cycles rename is idle
system.cpu.rename.blockCycles                 1700429                       # Number of cycles rename is blocking
system.cpu.rename.serializeStallCycles           2616                       # count of cycles rename stalledfor serializing inst
system.cpu.rename.runCycles                   3115397                       # Number of cycles rename is running
system.cpu.rename.unblockCycles               3577253                       # Number of cycles rename is unblocking
system.cpu.rename.renamedInsts               20663380                       # Number of instructions processed by rename
system.cpu.rename.ROBFullEvents                  9360                       # Number of times rename has blocked due to ROB full
system.cpu.rename.IQFullEvents                 129227                       # Number of times rename has blocked due to IQ full
system.cpu.rename.LQFullEvents                    725                       # Number of times rename has blocked due to LQ full
system.cpu.rename.SQFullEvents                3398525                       # Number of times rename has blocked due to SQ full
system.cpu.rename.fullRegistersEvents              21                       # Number of times there has been no free registers
system.cpu.rename.renamedOperands            22995561                       # Number of destination operands rename has renamed
system.cpu.rename.lookups                    54338582                       # Number of register rename lookups that rename has made
system.cpu.rename.intLookups                 32196080                       # Number of integer rename lookups
system.cpu.rename.fpLookups                    618137                       # Number of floating rename lookups
system.cpu.rename.committedMaps              20863668                       # Number of HB maps that are committed
system.cpu.rename.undoneMaps                  2131855                       # Number of HB maps that are undone due to squashing
system.cpu.rename.serializing                      40                       # count of serializing insts renamed
system.cpu.rename.tempSerializing                  22                       # count of temporary serializing insts renamed
system.cpu.rename.skidInsts                   1707252                       # count of insts added to the skid buffer
system.cpu.rob.reads                         29716925                       # The number of ROB reads
system.cpu.rob.writes                        40837311                       # The number of ROB writes
system.cpu.thread_0.numInsts                 10000001                       # Number of Instructions committed
system.cpu.thread_0.numOps                   18847133                       # Number of Ops committed
system.cpu.thread_0.numMemRefs                      0                       # Number of Memory References
system.cpu_clk_domain.clock                       500                       # Clock period in ticks
system.cpu_voltage_domain.voltage                   1                       # Voltage in Volts
system.l2.demand_hits::.cpu.inst                15885                       # number of demand (read+write) hits
system.l2.demand_hits::.cpu.data                 7026                       # number of demand (read+write) hits
system.l2.demand_hits::total                    22911                       # number of demand (read+write) hits
system.l2.overall_hits::.cpu.inst               15885                       # number of overall hits
system.l2.overall_hits::.cpu.data                7026                       # number of overall hits
system.l2.overall_hits::total                   22911                       # number of overall hits
system.l2.demand_misses::.cpu.inst               1343                       # number of demand (read+write) misses
system.l2.demand_misses::.cpu.data              37655                       # number of demand (read+write) misses
system.l2.demand_misses::total                  38998                       # number of demand (read+write) misses
system.l2.overall_misses::.cpu.inst              1343                       # number of overall misses
system.l2.overall_misses::.cpu.data             37655                       # number of overall misses
system.l2.overall_misses::total                 38998                       # number of overall misses
system.l2.demand_miss_latency::.cpu.inst     93902000                       # number of demand (read+write) miss cycles
system.l2.demand_miss_latency::.cpu.data   2994437000                       # number of demand (read+write) miss cycles
system.l2.demand_miss_latency::total       3088339000                       # number of demand (read+write) miss cycles
system.l2.overall_miss_latency::.cpu.inst     93902000                       # number of overall miss cycles
system.l2.overall_miss_latency::.cpu.data   2994437000                       # number of overall miss cycles
system.l2.overall_miss_latency::total      3088339000                       # number of overall miss cycles
system.l2.demand_accesses::.cpu.inst            17228                       # number of demand (read+write) accesses
system.l2.demand_accesses::.cpu.data            44681                       # number of demand (read+write) accesses
system.l2.demand_accesses::total                61909                       # number of demand (read+write) accesses
system.l2.overall_accesses::.cpu.inst           17228                       # number of overall (read+write) accesses
system.l2.overall_accesses::.cpu.data           44681                       # number of overall (read+write) accesses
system.l2.overall_accesses::total               61909                       # number of overall (read+write) accesses
system.l2.demand_miss_rate::.cpu.inst        0.077954                       # miss rate for demand accesses
system.l2.demand_miss_rate::.cpu.data        0.842752                       # miss rate for demand accesses
system.l2.demand_miss_rate::total            0.629925                       # miss rate for demand accesses
system.l2.overall_miss_rate::.cpu.inst       0.077954                       # miss rate for overall accesses
system.l2.overall_miss_rate::.cpu.data       0.842752                       # miss rate for overall accesses
system.l2.overall_miss_rate::total           0.629925                       # miss rate for overall accesses
system.l2.demand_avg_miss_latency::.cpu.inst 69919.583023                       # average overall miss latency
system.l2.demand_avg_miss_latency::.cpu.data 79522.958438                       # average overall miss latency
system.l2.demand_avg_miss_latency::total 79192.240628                       # average overall miss latency
system.l2.overall_avg_miss_latency::.cpu.inst 69919.583023                       # average overall miss latency
[...]
system.mem_ctrls.dram.readBursts                38998                       # Number of DRAM read bursts
system.mem_ctrls.dram.writeBursts               27373                       # Number of DRAM write bursts
system.mem_ctrls.dram.perBankRdBursts::0         2328                       # Per bank write bursts
system.mem_ctrls.dram.perBankRdBursts::1         2380                       # Per bank write bursts
system.mem_ctrls.dram.perBankRdBursts::2         2544                       # Per bank write bursts
system.mem_ctrls.dram.perBankRdBursts::3         2365                       # Per bank write bursts
system.mem_ctrls.dram.perBankRdBursts::4         2515                       # Per bank write bursts
system.mem_ctrls.dram.perBankRdBursts::5         2594                       # Per bank write bursts
system.mem_ctrls.dram.perBankRdBursts::6         2339                       # Per bank write bursts
system.mem_ctrls.dram.perBankRdBursts::7         2506                       # Per bank write bursts
system.mem_ctrls.dram.perBankRdBursts::8         2445                       # Per bank write bursts
system.mem_ctrls.dram.perBankRdBursts::9         2401                       # Per bank write bursts
system.mem_ctrls.dram.perBankRdBursts::10         2351                       # Per bank write bursts
system.mem_ctrls.dram.perBankRdBursts::11         2376                       # Per bank write bursts
system.mem_ctrls.dram.perBankRdBursts::12         2579                       # Per bank write bursts
system.mem_ctrls.dram.perBankRdBursts::13         2441                       # Per bank write bursts
system.mem_ctrls.dram.perBankRdBursts::14         2450                       # Per bank write bursts
system.mem_ctrls.dram.perBankRdBursts::15         2384                       # Per bank write bursts
system.mem_ctrls.dram.perBankWrBursts::0         1610                       # Per bank write bursts
system.mem_ctrls.dram.perBankWrBursts::1         1590                       # Per bank write bursts
system.mem_ctrls.dram.perBankWrBursts::2         1830                       # Per bank write bursts
system.mem_ctrls.dram.perBankWrBursts::3         1717                       # Per bank write bursts
system.mem_ctrls.dram.perBankWrBursts::4         1762                       # Per bank write bursts
system.mem_ctrls.dram.perBankWrBursts::5         1732                       # Per bank write bursts
system.mem_ctrls.dram.perBankWrBursts::6         1659                       # Per bank write bursts
system.mem_ctrls.dram.perBankWrBursts::7         1792                       # Per bank write bursts
system.mem_ctrls.dram.perBankWrBursts::8         1769                       # Per bank write bursts
system.mem_ctrls.dram.perBankWrBursts::9         1718                       # Per bank write bursts
system.mem_ctrls.dram.perBankWrBursts::10         1681                       # Per bank write bursts
system.mem_ctrls.dram.perBankWrBursts::11         1652                       # Per bank write bursts
system.mem_ctrls.dram.perBankWrBursts::12         1784                       # Per bank write bursts
system.mem_ctrls.dram.perBankWrBursts::13         1714                       # Per bank write bursts
system.mem_ctrls.dram.perBankWrBursts::14         1660                       # Per bank write bursts
system.mem_ctrls.dram.perBankWrBursts::15         1703                       # Per bank write bursts
system.mem_ctrls.dram.totQLat               672958250                       # Total ticks spent queuing
system.mem_ctrls.dram.totBusLat             194990000                       # Total ticks spent in databus transfers
system.mem_ctrls.dram.totMemAccLat         1404170750                       # Total ticks spent from burst creation until serviced by the DRAM
system.mem_ctrls.dram.avgQLat                17256.22                       # Average queueing delay per DRAM burst
system.mem_ctrls.dram.avgBusLat               5000.00                       # Average bus latency per DRAM burst
system.mem_ctrls.dram.avgMemAccLat           36006.22                       # Average memory access latency per DRAM burst
system.mem_ctrls.dram.readRowHits               19139                       # Number of row buffer hits during reads
system.mem_ctrls.dram.writeRowHits              14635                       # Number of row buffer hits during writes
system.mem_ctrls.dram.readRowHitRate            49.08                       # Row buffer hit rate for reads
system.mem_ctrls.dram.writeRowHitRate           53.47                       # Row buffer hit rate for writes
system.mem_ctrls.dram.bytesPerActivate::samples        32585                       # Bytes accessed per row activation
system.mem_ctrls.dram.bytesPerActivate::mean   130.321559                       # Bytes accessed per row activation
system.mem_ctrls.dram.bytesPerActivate::gmean    96.759978                       # Bytes accessed per row activation
system.mem_ctrls.dram.bytesPerActivate::stdev   143.027130                       # Bytes accessed per row activation
system.mem_ctrls.dram.bytesPerActivate::0-127        21243     65.19%     65.19% # Bytes accessed per row activation
system.mem_ctrls.dram.bytesPerActivate::128-255         7074     21.71%     86.90% # Bytes accessed per row activation
system.mem_ctrls.dram.bytesPerActivate::256-383         1915      5.88%     92.78% # Bytes accessed per row activation
system.mem_ctrls.dram.bytesPerActivate::384-511         1007      3.09%     95.87% # Bytes accessed per row activation
system.mem_ctrls.dram.bytesPerActivate::512-639          666      2.04%     97.91% # Bytes accessed per row activation
system.mem_ctrls.dram.bytesPerActivate::640-767          289      0.89%     98.80% # Bytes accessed per row activation
system.mem_ctrls.dram.bytesPerActivate::768-895          163      0.50%     99.30% # Bytes accessed per row activation
system.mem_ctrls.dram.bytesPerActivate::896-1023           59      0.18%     99.48% # Bytes accessed per row activation
system.mem_ctrls.dram.bytesPerActivate::1024-1151          169      0.52%    100.00% # Bytes accessed per row activation
system.mem_ctrls.dram.bytesPerActivate::total        32585                       # Bytes accessed per row activation
system.mem_ctrls.dram.bytesRead               2495872                       # Total number of bytes read from DRAM
system.mem_ctrls.dram.bytesWritten            1751872                       # Total number of bytes written to DRAM
system.mem_ctrls.dram.avgRdBW              467.433689                       # Average DRAM read bandwidth in MiBytes/s
system.mem_ctrls.dram.avgWrBW              328.095348                       # Average DRAM write bandwidth in MiBytes/s
system.mem_ctrls.dram.peakBW                 12800.00                       # Theoretical peak bandwidth in MiByte/s
system.mem_ctrls.dram.busUtil                    6.22                       # Data bus utilization in percentage
system.mem_ctrls.dram.busUtilRead                3.65                       # Data bus utilization in percentage for reads
system.mem_ctrls.dram.busUtilWrite               2.56                       # Data bus utilization in percentage for writes
system.mem_ctrls.dram.pageHitRate               50.89                       # Row buffer hit rate, read and write combined
system.mem_ctrls.dram.power_state.pwrStateResidencyTicks::UNDEFINED   5339521000                       # Cumulative time (in ticks) in various power states
system.mem_ctrls.dram.rank0.actEnergy       116996040                       # Energy for activate commands per rank (pJ)
system.mem_ctrls.dram.rank0.preEnergy        62154510                       # Energy for precharge commands per rank (pJ)
system.mem_ctrls.dram.rank0.readEnergy      139736940                       # Energy for read commands per rank (pJ)
system.mem_ctrls.dram.rank0.writeEnergy      71472240                       # Energy for write commands per rank (pJ)
system.mem_ctrls.dram.rank0.refreshEnergy 421028400.000000                       # Energy for refresh commands per rank (pJ)
system.mem_ctrls.dram.rank0.actBackEnergy   2360893830                       # Energy for active background per rank (pJ)
system.mem_ctrls.dram.rank0.preBackEnergy     62255040                       # Energy for precharge background per rank (pJ)
system.mem_ctrls.dram.rank0.actPowerDownEnergy            0                       # Energy for active power-down per rank (pJ)
system.mem_ctrls.dram.rank0.prePowerDownEnergy            0                       # Energy for precharge power-down per rank (pJ)
system.mem_ctrls.dram.rank0.selfRefreshEnergy            0                       # Energy for self refresh per rank (pJ)
system.mem_ctrls.dram.rank0.totalEnergy    3234537000                       # Total energy per rank (pJ)
system.mem_ctrls.dram.rank0.averagePower   605.772877                       # Core power per rank (mW)
system.mem_ctrls.dram.rank0.totalIdleTime            0                       # Total Idle time Per DRAM Rank
system.mem_ctrls.dram.rank0.pwrStateTime::IDLE    142400750                       # Time in different power states
system.mem_ctrls.dram.rank0.pwrStateTime::REF    178100000                       # Time in different power states
system.mem_ctrls.dram.rank0.pwrStateTime::SREF            0                       # Time in different power states
system.mem_ctrls.dram.rank0.pwrStateTime::PRE_PDN            0                       # Time in different power states
system.mem_ctrls.dram.rank0.pwrStateTime::ACT   5019020250                       # Time in different power states
system.mem_ctrls.dram.rank0.pwrStateTime::ACT_PDN            0                       # Time in different power states
system.mem_ctrls.dram.rank1.actEnergy       115746540                       # Energy for activate commands per rank (pJ)
system.mem_ctrls.dram.rank1.preEnergy        61505565                       # Energy for precharge commands per rank (pJ)
system.mem_ctrls.dram.rank1.readEnergy      138708780                       # Energy for read commands per rank (pJ)
system.mem_ctrls.dram.rank1.writeEnergy      71414820                       # Energy for write commands per rank (pJ)
system.mem_ctrls.dram.rank1.refreshEnergy 421028400.000000                       # Energy for refresh commands per rank (pJ)
system.mem_ctrls.dram.rank1.actBackEnergy   2360060490                       # Energy for active background per rank (pJ)
system.mem_ctrls.dram.rank1.preBackEnergy     62956800                       # Energy for precharge background per rank (pJ)
system.mem_ctrls.dram.rank1.actPowerDownEnergy            0                       # Energy for active power-down per rank (pJ)
system.mem_ctrls.dram.rank1.prePowerDownEnergy            0                       # Energy for precharge power-down per rank (pJ)
system.mem_ctrls.dram.rank1.selfRefreshEnergy            0                       # Energy for self refresh per rank (pJ)
system.mem_ctrls.dram.rank1.totalEnergy    3231421395                       # Total energy per rank (pJ)
system.mem_ctrls.dram.rank1.averagePower   605.189378                       # Core power per rank (mW)
system.mem_ctrls.dram.rank1.totalIdleTime            0                       # Total Idle time Per DRAM Rank
system.mem_ctrls.dram.rank1.pwrStateTime::IDLE    143941250                       # Time in different power states
system.mem_ctrls.dram.rank1.pwrStateTime::REF    178100000                       # Time in different power states
system.mem_ctrls.dram.rank1.pwrStateTime::SREF            0                       # Time in different power states
system.mem_ctrls.dram.rank1.pwrStateTime::PRE_PDN            0                       # Time in different power states
system.mem_ctrls.dram.rank1.pwrStateTime::ACT   5017479750                       # Time in different power states
system.mem_ctrls.dram.rank1.pwrStateTime::ACT_PDN            0                       # Time in different power states
system.mem_ctrls.power_state.pwrStateResidencyTicks::UNDEFINED   5339521000                       # Cumulative time (in ticks) in various power states
system.membus.trans_dist::ReadResp              10223                       # Transaction distribution
system.membus.trans_dist::WritebackDirty        27397                       # Transaction distribution
system.membus.trans_dist::CleanEvict             2877                       # Transaction distribution
system.membus.trans_dist::ReadExReq             28775                       # Transaction distribution
system.membus.trans_dist::ReadExResp            28775                       # Transaction distribution
system.membus.trans_dist::ReadSharedReq         10223                       # Transaction distribution
system.membus.pkt_count_system.l2.mem_side_port::system.mem_ctrls.port       108270                       # Packet count per connected requestor and responder (bytes)
system.membus.pkt_count_system.l2.mem_side_port::total       108270                       # Packet count per connected requestor and responder (bytes)
system.membus.pkt_count::total                 108270                       # Packet count per connected requestor and responder (bytes)
system.membus.pkt_size_system.l2.mem_side_port::system.mem_ctrls.port      4249280                       # Cumulative packet size per connected requestor and responder (bytes)
system.membus.pkt_size_system.l2.mem_side_port::total      4249280                       # Cumulative packet size per connected requestor and responder (bytes)
system.membus.pkt_size::total                 4249280                       # Cumulative packet size per connected requestor and responder (bytes)
system.membus.snoops                                0                       # Total snoops (count)
system.membus.snoopTraffic                          0                       # Total snoop traffic (bytes)
system.membus.snoop_fanout::samples             38998                       # Request fanout histogram
system.membus.snoop_fanout::mean                    0                       # Request fanout histogram
system.membus.snoop_fanout::stdev                   0                       # Request fanout histogram
system.membus.snoop_fanout::underflows              0      0.00%      0.00% # Request fanout histogram
system.membus.snoop_fanout::0                   38998    100.00%    100.00% # Request fanout histogram
system.membus.snoop_fanout::1                       0      0.00%    100.00% # Request fanout histogram
system.membus.snoop_fanout::overflows               0      0.00%    100.00% # Request fanout histogram
system.membus.snoop_fanout::min_value               0                       # Request fanout histogram
system.membus.snoop_fanout::max_value               0                       # Request fanout histogram
system.membus.snoop_fanout::total               38998                       # Request fanout histogram
system.membus.power_state.pwrStateResidencyTicks::UNDEFINED   5339521000                       # Cumulative time (in ticks) in various power states
system.membus.reqLayer2.occupancy            44715000                       # Layer occupancy (ticks)
system.membus.reqLayer2.utilization               0.8                       # Layer utilization (%)
system.membus.respLayer1.occupancy           48747500                       # Layer occupancy (ticks)
system.membus.respLayer1.utilization              0.9                       # Layer utilization (%)
system.tol2bus.trans_dist::ReadResp             29445                       # Transaction distribution
system.tol2bus.trans_dist::WritebackDirty        67906                       # Transaction distribution
system.tol2bus.trans_dist::WritebackClean        16722                       # Transaction distribution
system.tol2bus.trans_dist::CleanEvict            7117                       # Transaction distribution
system.tol2bus.trans_dist::UpgradeReq               3                       # Transaction distribution
system.tol2bus.trans_dist::UpgradeResp              3                       # Transaction distribution
system.tol2bus.trans_dist::ReadExReq            32467                       # Transaction distribution
system.tol2bus.trans_dist::ReadExResp           32467                       # Transaction distribution
system.tol2bus.trans_dist::ReadCleanReq         17231                       # Transaction distribution
system.tol2bus.trans_dist::ReadSharedReq        12214                       # Transaction distribution
system.tol2bus.pkt_count_system.cpu.icache.mem_side_port::system.l2.cpu_side_port        51181                       # Packet count per connected requestor and responder (bytes)
system.tol2bus.pkt_count_system.cpu.dcache.mem_side_port::system.l2.cpu_side_port       133537                       # Packet count per connected requestor and responder (bytes)
system.tol2bus.pkt_count::total                184718                       # Packet count per connected requestor and responder (bytes)
system.tol2bus.pkt_size_system.cpu.icache.mem_side_port::system.l2.cpu_side_port      2172800                       # Cumulative packet size per connected requestor and responder (bytes)
system.tol2bus.pkt_size_system.cpu.dcache.mem_side_port::system.l2.cpu_side_port      5452160                       # Cumulative packet size per connected requestor and responder (bytes)
system.tol2bus.pkt_size::total                7624960                       # Cumulative packet size per connected requestor and responder (bytes)
system.tol2bus.snoops                           30857                       # Total snoops (count)
system.tol2bus.snoopTraffic                   1753600                       # Total snoop traffic (bytes)
system.tol2bus.snoop_fanout::samples            92769                       # Request fanout histogram
system.tol2bus.snoop_fanout::mean            0.006554                       # Request fanout histogram
system.tol2bus.snoop_fanout::stdev           0.081224                       # Request fanout histogram
system.tol2bus.snoop_fanout::underflows             0      0.00%      0.00% # Request fanout histogram
system.tol2bus.snoop_fanout::0                  92165     99.35%     99.35% # Request fanout histogram
system.tol2bus.snoop_fanout::1                    600      0.65%    100.00% # Request fanout histogram
system.tol2bus.snoop_fanout::2                      4      0.00%    100.00% # Request fanout histogram
system.tol2bus.snoop_fanout::3                      0      0.00%    100.00% # Request fanout histogram
system.tol2bus.snoop_fanout::4                      0      0.00%    100.00% # Request fanout histogram
system.tol2bus.snoop_fanout::overflows              0      0.00%    100.00% # Request fanout histogram
system.tol2bus.snoop_fanout::min_value              0                       # Request fanout histogram
system.tol2bus.snoop_fanout::max_value              2                       # Request fanout histogram
system.tol2bus.snoop_fanout::total              92769                       # Request fanout histogram
system.tol2bus.power_state.pwrStateResidencyTicks::UNDEFINED   5339521000                       # Cumulative time (in ticks) in various power states
system.tol2bus.reqLayer0.occupancy          118634000                       # Layer occupancy (ticks)
system.tol2bus.reqLayer0.utilization              2.2                       # Layer utilization (%)
system.tol2bus.respLayer0.occupancy          25847498                       # Layer occupancy (ticks)
system.tol2bus.respLayer0.utilization             0.5                       # Layer utilization (%)
system.tol2bus.respLayer1.occupancy          67023000                       # Layer occupancy (ticks)
system.tol2bus.respLayer1.utilization             1.3                       # Layer utilization (%)
system.voltage_domain.voltage                       1                       # Voltage in Volts

---------- End Simulation Statistics   ----------
