
---------- Begin Simulation Statistics ----------
final_tick                                   65856000                       # Number of ticks from beginning of simulation (restored from checkpoints and never reset)
host_inst_rate                                  50713                       # Simulator instruction rate (inst/s)
host_mem_usage                                2217468                       # Number of bytes of host memory used
host_op_rate                                   100246                       # Simulator op (including micro ops) rate (op/s)
host_seconds                                     0.44                       # Real time elapsed on the host
host_tick_rate                               69880836                       # Simulator tick rate (ticks/s)
sim_freq                                 1000000000000                       # Frequency of simulated ticks
sim_insts                                       22305                       # Number of instructions simulated
sim_ops                                         44117                       # Number of ops (including micro ops) simulated
sim_seconds                                  0.000031                       # Number of seconds simulated
sim_ticks                                    30758000                       # Number of ticks simulated
system.cpu.cc_regfile_reads                     24617                       # number of cc regfile reads
system.cpu.cc_regfile_writes                    32774                       # number of cc regfile writes
system.cpu.committedInsts                       14396                       # Number of Instructions Simulated
system.cpu.committedOps                         28796                       # Number of Ops (including micro ops) Simulated
system.cpu.cpi                               2.136566                       # CPI: Cycles Per Instruction
system.cpu.cpi_total                         2.136566                       # CPI: Total CPI of All Threads
system.cpu.idleCycles                               7                       # Total number of cycles that the CPU has spent unscheduled due to idling
system.cpu.iew.branchMispredicts                 3832                       # Number of branch mispredicts detected at execute
system.cpu.iew.exec_branches                     6159                       # Number of branches executed
system.cpu.iew.exec_nop                             0                       # number of nop insts executed
system.cpu.iew.exec_rate                     1.601827                       # Inst execution rate
system.cpu.iew.exec_refs                         4100                       # number of memory reference insts executed
system.cpu.iew.exec_stores                          3                       # Number of stores executed
system.cpu.iew.exec_swp                             0                       # number of swp insts executed
system.cpu.iew.iewBlockCycles                    6140                       # Number of cycles IEW is blocking
system.cpu.iew.iewDispLoadInsts                  6151                       # Number of dispatched load instructions
system.cpu.iew.iewDispNonSpecInsts               2048                       # Number of dispatched non-speculative instructions
system.cpu.iew.iewDispSquashedInsts                 0                       # Number of squashed instructions skipped by dispatch
system.cpu.iew.iewDispStoreInsts                 6140                       # Number of dispatched store instructions
system.cpu.iew.iewDispatchedInsts               82005                       # Number of instructions dispatched to IQ
system.cpu.iew.iewExecLoadInsts                  4097                       # Number of load instructions executed
system.cpu.iew.iewExecSquashedInsts              6142                       # Number of squashed instructions skipped in execute
system.cpu.iew.iewExecutedInsts                 49269                       # Number of executed instructions
system.cpu.iew.iewIQFullEvents                      0                       # Number of times the IQ has become full, causing a stall
system.cpu.iew.iewIdleCycles                        0                       # Number of cycles IEW is idle
system.cpu.iew.iewLSQFullEvents                     0                       # Number of times the LSQ has become full, causing a stall
system.cpu.iew.iewSquashCycles                   2048                       # Number of cycles IEW is squashing
system.cpu.iew.iewUnblockCycles                     0                       # Number of cycles IEW is unblocking
system.cpu.iew.memOrderViolationEvents              1                       # Number of memory order violations
system.cpu.iew.predictedNotTakenIncorrect         3832                       # Number of branches that were predicted not taken incorrectly
system.cpu.iew.predictedTakenIncorrect              0                       # Number of branches that were predicted taken incorrectly
system.cpu.iew.wb_consumers                     47288                       # num instructions consuming a value
system.cpu.iew.wb_count                         49265                       # cumulative count of insts written-back
system.cpu.iew.wb_fanout                     0.824945                       # average fanout of values written-back
system.cpu.iew.wb_producers                     39010                       # num instructions producing a value
system.cpu.iew.wb_rate                       1.601697                       # insts written-back per cycle
system.cpu.iew.wb_sent                          49268                       # cumulative count of insts sent to commit
system.cpu.int_regfile_reads                    59509                       # number of integer regfile reads
system.cpu.int_regfile_writes                   43089                       # number of integer regfile writes
system.cpu.ipc                               0.468041                       # IPC: Instructions Per Cycle
system.cpu.ipc_total                         0.468041                       # IPC: Total IPC of All Threads
system.cpu.iq.FU_type_0::No_OpClass              2044      3.69%      3.69% # Type of FU issued
system.cpu.iq.FU_type_0::IntAlu                 49252     88.90%     92.59% # Type of FU issued
system.cpu.iq.FU_type_0::IntMult                    0      0.00%     92.59% # Type of FU issued
system.cpu.iq.FU_type_0::IntDiv                     0      0.00%     92.59% # Type of FU issued
system.cpu.iq.FU_type_0::FloatAdd                   0      0.00%     92.59% # Type of FU issued
system.cpu.iq.FU_type_0::FloatCmp                   0      0.00%     92.59% # Type of FU issued
system.cpu.iq.FU_type_0::FloatCvt                   0      0.00%     92.59% # Type of FU issued
system.cpu.iq.FU_type_0::FloatMult                  0      0.00%     92.59% # Type of FU issued
system.cpu.iq.FU_type_0::FloatMultAcc               0      0.00%     92.59% # Type of FU issued
system.cpu.iq.FU_type_0::FloatDiv                   0      0.00%     92.59% # Type of FU issued
system.cpu.iq.FU_type_0::FloatMisc                  0      0.00%     92.59% # Type of FU issued
system.cpu.iq.FU_type_0::FloatSqrt                  0      0.00%     92.59% # Type of FU issued
system.cpu.iq.FU_type_0::SimdAdd                    0      0.00%     92.59% # Type of FU issued
system.cpu.iq.FU_type_0::SimdAddAcc                 0      0.00%     92.59% # Type of FU issued
system.cpu.iq.FU_type_0::SimdAlu                    0      0.00%     92.59% # Type of FU issued
system.cpu.iq.FU_type_0::SimdCmp                    0      0.00%     92.59% # Type of FU issued
system.cpu.iq.FU_type_0::SimdCvt                    0      0.00%     92.59% # Type of FU issued
system.cpu.iq.FU_type_0::SimdMisc                   0      0.00%     92.59% # Type of FU issued
system.cpu.iq.FU_type_0::SimdMult                   0      0.00%     92.59% # Type of FU issued
system.cpu.iq.FU_type_0::SimdMultAcc                0      0.00%     92.59% # Type of FU issued
system.cpu.iq.FU_type_0::SimdShift                  0      0.00%     92.59% # Type of FU issued
system.cpu.iq.FU_type_0::SimdShiftAcc               0      0.00%     92.59% # Type of FU issued
system.cpu.iq.FU_type_0::SimdDiv                    0      0.00%     92.59% # Type of FU issued
system.cpu.iq.FU_type_0::SimdSqrt                   0      0.00%     92.59% # Type of FU issued
system.cpu.iq.FU_type_0::SimdFloatAdd               0      0.00%     92.59% # Type of FU issued
system.cpu.iq.FU_type_0::SimdFloatAlu               0      0.00%     92.59% # Type of FU issued
system.cpu.iq.FU_type_0::SimdFloatCmp               0      0.00%     92.59% # Type of FU issued
system.cpu.iq.FU_type_0::SimdFloatCvt               0      0.00%     92.59% # Type of FU issued
system.cpu.iq.FU_type_0::SimdFloatDiv               0      0.00%     92.59% # Type of FU issued
system.cpu.iq.FU_type_0::SimdFloatMisc              0      0.00%     92.59% # Type of FU issued
system.cpu.iq.FU_type_0::SimdFloatMult              0      0.00%     92.59% # Type of FU issued
system.cpu.iq.FU_type_0::SimdFloatMultAcc            0      0.00%     92.59% # Type of FU issued
system.cpu.iq.FU_type_0::SimdFloatSqrt              0      0.00%     92.59% # Type of FU issued
system.cpu.iq.FU_type_0::SimdReduceAdd              0      0.00%     92.59% # Type of FU issued
system.cpu.iq.FU_type_0::SimdReduceAlu              0      0.00%     92.59% # Type of FU issued
system.cpu.iq.FU_type_0::SimdReduceCmp              0      0.00%     92.59% # Type of FU issued
system.cpu.iq.FU_type_0::SimdFloatReduceAdd            0      0.00%     92.59% # Type of FU issued
system.cpu.iq.FU_type_0::SimdFloatReduceCmp            0      0.00%     92.59% # Type of FU issued
system.cpu.iq.FU_type_0::SimdAes                    0      0.00%     92.59% # Type of FU issued
system.cpu.iq.FU_type_0::SimdAesMix                 0      0.00%     92.59% # Type of FU issued
system.cpu.iq.FU_type_0::SimdSha1Hash               0      0.00%     92.59% # Type of FU issued
system.cpu.iq.FU_type_0::SimdSha1Hash2              0      0.00%     92.59% # Type of FU issued
system.cpu.iq.FU_type_0::SimdSha256Hash             0      0.00%     92.59% # Type of FU issued
system.cpu.iq.FU_type_0::SimdSha256Hash2            0      0.00%     92.59% # Type of FU issued
system.cpu.iq.FU_type_0::SimdShaSigma2              0      0.00%     92.59% # Type of FU issued
system.cpu.iq.FU_type_0::SimdShaSigma3              0      0.00%     92.59% # Type of FU issued
system.cpu.iq.FU_type_0::SimdPredAlu                0      0.00%     92.59% # Type of FU issued
system.cpu.iq.FU_type_0::MemRead                 4105      7.41%     99.99% # Type of FU issued
system.cpu.iq.FU_type_0::MemWrite                   3      0.01%    100.00% # Type of FU issued
system.cpu.iq.FU_type_0::FloatMemRead               0      0.00%    100.00% # Type of FU issued
system.cpu.iq.FU_type_0::FloatMemWrite              0      0.00%    100.00% # Type of FU issued
system.cpu.iq.FU_type_0::IprAccess                  0      0.00%    100.00% # Type of FU issued
system.cpu.iq.FU_type_0::InstPrefetch               0      0.00%    100.00% # Type of FU issued
system.cpu.iq.FU_type_0::total                  55404                       # Type of FU issued
system.cpu.iq.fp_alu_accesses                       0                       # Number of floating point alu accesses
system.cpu.iq.fp_inst_queue_reads                   0                       # Number of floating instruction queue reads
system.cpu.iq.fp_inst_queue_wakeup_accesses            0                       # Number of floating instruction queue wakeup accesses
system.cpu.iq.fp_inst_queue_writes                  0                       # Number of floating instruction queue writes
system.cpu.iq.fu_busy_cnt                          11                       # FU busy when requested
system.cpu.iq.fu_busy_rate                   0.000199                       # FU busy rate (busy events/executed inst)
system.cpu.iq.fu_full::No_OpClass                   0      0.00%      0.00% # attempts to use FU when none available
system.cpu.iq.fu_full::IntAlu                      11    100.00%    100.00% # attempts to use FU when none available
system.cpu.iq.fu_full::IntMult                      0      0.00%    100.00% # attempts to use FU when none available
system.cpu.iq.fu_full::IntDiv                       0      0.00%    100.00% # attempts to use FU when none available
system.cpu.iq.fu_full::FloatAdd                     0      0.00%    100.00% # attempts to use FU when none available
system.cpu.iq.fu_full::FloatCmp                     0      0.00%    100.00% # attempts to use FU when none available
system.cpu.iq.fu_full::FloatCvt                     0      0.00%    100.00% # attempts to use FU when none available
system.cpu.iq.fu_full::FloatMult                    0      0.00%    100.00% # attempts to use FU when none available
system.cpu.iq.fu_full::FloatMultAcc                 0      0.00%    100.00% # attempts to use FU when none available
system.cpu.iq.fu_full::FloatDiv                     0      0.00%    100.00% # attempts to use FU when none available
system.cpu.iq.fu_full::FloatMisc                    0      0.00%    100.00% # attempts to use FU when none available
system.cpu.iq.fu_full::FloatSqrt                    0      0.00%    100.00% # attempts to use FU when none available
system.cpu.iq.fu_full::SimdAdd                      0      0.00%    100.00% # attempts to use FU when none available
system.cpu.iq.fu_full::SimdAddAcc                   0      0.00%    100.00% # attempts to use FU when none available
system.cpu.iq.fu_full::SimdAlu                      0      0.00%    100.00% # attempts to use FU when none available
system.cpu.iq.fu_full::SimdCmp                      0      0.00%    100.00% # attempts to use FU when none available
system.cpu.iq.fu_full::SimdCvt                      0      0.00%    100.00% # attempts to use FU when none available
system.cpu.iq.fu_full::SimdMisc                     0      0.00%    100.00% # attempts to use FU when none available
system.cpu.iq.fu_full::SimdMult                     0      0.00%    100.00% # attempts to use FU when none available
system.cpu.iq.fu_full::SimdMultAcc                  0      0.00%    100.00% # attempts to use FU when none available
system.cpu.iq.fu_full::SimdShift                    0      0.00%    100.00% # attempts to use FU when none available
system.cpu.iq.fu_full::SimdShiftAcc                 0      0.00%    100.00% # attempts to use FU when none available
system.cpu.iq.fu_full::SimdDiv                      0      0.00%    100.00% # attempts to use FU when none available
system.cpu.iq.fu_full::SimdSqrt                     0      0.00%    100.00% # attempts to use FU when none available
system.cpu.iq.fu_full::SimdFloatAdd                 0      0.00%    100.00% # attempts to use FU when none available
system.cpu.iq.fu_full::SimdFloatAlu                 0      0.00%    100.00% # attempts to use FU when none available
system.cpu.iq.fu_full::SimdFloatCmp                 0      0.00%    100.00% # attempts to use FU when none available
system.cpu.iq.fu_full::SimdFloatCvt                 0      0.00%    100.00% # attempts to use FU when none available
system.cpu.iq.fu_full::SimdFloatDiv                 0      0.00%    100.00% # attempts to use FU when none available
system.cpu.iq.fu_full::SimdFloatMisc                0      0.00%    100.00% # attempts to use FU when none available
system.cpu.iq.fu_full::SimdFloatMult                0      0.00%    100.00% # attempts to use FU when none available
system.cpu.iq.fu_full::SimdFloatMultAcc             0      0.00%    100.00% # attempts to use FU when none available
system.cpu.iq.fu_full::SimdFloatSqrt                0      0.00%    100.00% # attempts to use FU when none available
system.cpu.iq.fu_full::SimdReduceAdd                0      0.00%    100.00% # attempts to use FU when none available
system.cpu.iq.fu_full::SimdReduceAlu                0      0.00%    100.00% # attempts to use FU when none available
system.cpu.iq.fu_full::SimdReduceCmp                0      0.00%    100.00% # attempts to use FU when none available
system.cpu.iq.fu_full::SimdFloatReduceAdd            0      0.00%    100.00% # attempts to use FU when none available
system.cpu.iq.fu_full::SimdFloatReduceCmp            0      0.00%    100.00% # attempts to use FU when none available
system.cpu.iq.fu_full::SimdAes                      0      0.00%    100.00% # attempts to use FU when none available
system.cpu.iq.fu_full::SimdAesMix                   0      0.00%    100.00% # attempts to use FU when none available
system.cpu.iq.fu_full::SimdSha1Hash                 0      0.00%    100.00% # attempts to use FU when none available
system.cpu.iq.fu_full::SimdSha1Hash2                0      0.00%    100.00% # attempts to use FU when none available
system.cpu.iq.fu_full::SimdSha256Hash               0      0.00%    100.00% # attempts to use FU when none available
system.cpu.iq.fu_full::SimdSha256Hash2              0      0.00%    100.00% # attempts to use FU when none available
system.cpu.iq.fu_full::SimdShaSigma2                0      0.00%    100.00% # attempts to use FU when none available
system.cpu.iq.fu_full::SimdShaSigma3                0      0.00%    100.00% # attempts to use FU when none available
system.cpu.iq.fu_full::SimdPredAlu                  0      0.00%    100.00% # attempts to use FU when none available
system.cpu.iq.fu_full::MemRead                      0      0.00%    100.00% # attempts to use FU when none available
system.cpu.iq.fu_full::MemWrite                     0      0.00%    100.00% # attempts to use FU when none available
system.cpu.iq.fu_full::FloatMemRead                 0      0.00%    100.00% # attempts to use FU when none available
system.cpu.iq.fu_full::FloatMemWrite                0      0.00%    100.00% # attempts to use FU when none available
system.cpu.iq.fu_full::IprAccess                    0      0.00%    100.00% # attempts to use FU when none available
system.cpu.iq.fu_full::InstPrefetch                 0      0.00%    100.00% # attempts to use FU when none available
system.cpu.iq.int_alu_accesses                  53371                       # Number of integer alu accesses
system.cpu.iq.int_inst_queue_reads             141584                       # Number of integer instruction queue reads
system.cpu.iq.int_inst_queue_wakeup_accesses        49265                       # Number of integer instruction queue wakeup accesses
system.cpu.iq.int_inst_queue_writes            135250                       # Number of integer instruction queue writes
system.cpu.iq.iqInstsAdded                      79957                       # Number of instructions added to the IQ (excludes non-spec)
system.cpu.iq.iqInstsIssued                     55404                       # Number of instructions issued
system.cpu.iq.iqNonSpecInstsAdded                2048                       # Number of non-speculative instructions added to the IQ
system.cpu.iq.iqSquashedInstsExamined           53244                       # Number of squashed instructions iterated over during squash; mainly for profiling
system.cpu.iq.iqSquashedInstsIssued                 7                       # Number of squashed instructions issued
system.cpu.iq.iqSquashedNonSpecRemoved           2047                       # Number of squashed non-spec instructions that were removed
system.cpu.iq.iqSquashedOperandsExamined        65514                       # Number of squashed operands that are examined and possibly removed from graph
system.cpu.iq.issued_per_cycle::samples         30751                       # Number of insts issued each cycle
system.cpu.iq.issued_per_cycle::mean         1.801698                       # Number of insts issued each cycle
system.cpu.iq.issued_per_cycle::stdev        2.343431                       # Number of insts issued each cycle
system.cpu.iq.issued_per_cycle::underflows            0      0.00%      0.00% # Number of insts issued each cycle
system.cpu.iq.issued_per_cycle::0               18393     59.81%     59.81% # Number of insts issued each cycle
system.cpu.iq.issued_per_cycle::1                  49      0.16%     59.97% # Number of insts issued each cycle
system.cpu.iq.issued_per_cycle::2                  43      0.14%     60.11% # Number of insts issued each cycle
system.cpu.iq.issued_per_cycle::3                4060     13.20%     73.31% # Number of insts issued each cycle
system.cpu.iq.issued_per_cycle::4                2039      6.63%     79.95% # Number of insts issued each cycle
system.cpu.iq.issued_per_cycle::5                2094      6.81%     86.75% # Number of insts issued each cycle
system.cpu.iq.issued_per_cycle::6                4049     13.17%     99.92% # Number of insts issued each cycle
system.cpu.iq.issued_per_cycle::7                  23      0.07%    100.00% # Number of insts issued each cycle
system.cpu.iq.issued_per_cycle::8                   1      0.00%    100.00% # Number of insts issued each cycle
system.cpu.iq.issued_per_cycle::overflows            0      0.00%    100.00% # Number of insts issued each cycle
system.cpu.iq.issued_per_cycle::min_value            0                       # Number of insts issued each cycle
system.cpu.iq.issued_per_cycle::max_value            8                       # Number of insts issued each cycle
system.cpu.iq.issued_per_cycle::total           30751                       # Number of insts issued each cycle
system.cpu.iq.rate                           1.801287                       # Inst issue rate
system.cpu.iq.vec_alu_accesses                      0                       # Number of vector alu accesses
system.cpu.iq.vec_inst_queue_reads                  0                       # Number of vector instruction queue reads
system.cpu.iq.vec_inst_queue_wakeup_accesses            0                       # Number of vector instruction queue wakeup accesses
system.cpu.iq.vec_inst_queue_writes                 0                       # Number of vector instruction queue writes
system.cpu.memDep0.conflictingLoads                 0                       # Number of conflicting loads.
system.cpu.memDep0.conflictingStores                0                       # Number of conflicting stores.
system.cpu.memDep0.insertedLoads                 6151                       # Number of loads inserted to the mem dependence unit.
system.cpu.memDep0.insertedStores                6140                       # Number of stores inserted to the mem dependence unit.
system.cpu.misc_regfile_reads                   14380                       # number of misc regfile reads
system.cpu.numCycles                            30758                       # number of cpu cycles simulated
system.cpu.numWorkItemsCompleted                    0                       # number of work items this cpu completed
system.cpu.numWorkItemsStarted                      0                       # number of work items this cpu started
system.cpu.timesIdled                               1                       # Number of times that the entire CPU went into an idle state and unscheduled itself
system.cpu.workload.numSyscalls                     0                       # Number of system calls
system.l1_to_l2.snoop_filter.hit_multi_requests            0                       # Number of requests hitting in the snoop filter with multiple (>1) holders of the requested data.
system.l1_to_l2.snoop_filter.hit_multi_snoops            0                       # Number of snoops hitting in the snoop filter with multiple (>1) holders of the requested data.
system.l1_to_l2.snoop_filter.hit_single_requests            1                       # Number of requests hitting in the snoop filter with a single holder of the requested data.
system.l1_to_l2.snoop_filter.hit_single_snoops            0                       # Number of snoops hitting in the snoop filter with a single holder of the requested data.
system.l1_to_l2.snoop_filter.tot_requests            8                       # Total number of requests made to the snoop filter.
system.l1_to_l2.snoop_filter.tot_snoops             0                       # Total number of snoops made to the snoop filter.
system.membus.snoop_filter.hit_multi_requests            0                       # Number of requests hitting in the snoop filter with multiple (>1) holders of the requested data.
system.membus.snoop_filter.hit_multi_snoops            0                       # Number of snoops hitting in the snoop filter with multiple (>1) holders of the requested data.
system.membus.snoop_filter.hit_single_requests            0                       # Number of requests hitting in the snoop filter with a single holder of the requested data.
system.membus.snoop_filter.hit_single_snoops            0                       # Number of snoops hitting in the snoop filter with a single holder of the requested data.
system.membus.snoop_filter.tot_requests             6                       # Total number of requests made to the snoop filter.
system.membus.snoop_filter.tot_snoops               0                       # Total number of snoops made to the snoop filter.
system.clk_domain.clock                          1000                       # Clock period in ticks
system.clk_domain.voltage_domain.voltage            1                       # Voltage in Volts
system.cpu.branchPred.lookups                   16376                       # Number of BP lookups
system.cpu.branchPred.condPredicted              8183                       # Number of conditional branches predicted
system.cpu.branchPred.condIncorrect              2048                       # Number of conditional branches incorrect
system.cpu.branchPred.BTBLookups                 4098                       # Number of BTB lookups
system.cpu.branchPred.BTBHits                    4096                       # Number of BTB hits
system.cpu.branchPred.BTBHitPct             99.951196                       # BTB Hit Percentage
system.cpu.branchPred.RASUsed                    4095                       # Number of times the RAS was used to get a target.
system.cpu.branchPred.RASIncorrect                  0                       # Number of incorrect RAS predictions.
system.cpu.branchPred.indirectLookups               0                       # Number of indirect predictor lookups.
system.cpu.branchPred.indirectHits                  0                       # Number of indirect target hits.
system.cpu.branchPred.indirectMisses                0                       # Number of indirect misses.
system.cpu.branchPred.indirectMispredicted            0                       # Number of mispredicted indirect branches.
system.cpu.commit.commitSquashedInsts           53200                       # The number of squashed insts skipped by commit
system.cpu.commit.commitNonSpecStalls               1                       # The number of times commit has been forced to stall to communicate backwards
system.cpu.commit.branchMispredicts              2047                       # The number of times a branch was mispredicted
system.cpu.commit.numCommittedDist::samples        22563                       # Number of insts commited each cycle
system.cpu.commit.numCommittedDist::mean     1.276249                       # Number of insts commited each cycle
system.cpu.commit.numCommittedDist::stdev     2.421328                       # Number of insts commited each cycle
system.cpu.commit.numCommittedDist::underflows            0      0.00%      0.00% # Number of insts commited each cycle
system.cpu.commit.numCommittedDist::0           14378     63.72%     63.72% # Number of insts commited each cycle
system.cpu.commit.numCommittedDist::1            4058     17.99%     81.71% # Number of insts commited each cycle
system.cpu.commit.numCommittedDist::2              17      0.08%     81.78% # Number of insts commited each cycle
system.cpu.commit.numCommittedDist::3               7      0.03%     81.82% # Number of insts commited each cycle
system.cpu.commit.numCommittedDist::4            2022      8.96%     90.78% # Number of insts commited each cycle
system.cpu.commit.numCommittedDist::5              15      0.07%     90.84% # Number of insts commited each cycle
system.cpu.commit.numCommittedDist::6               4      0.02%     90.86% # Number of insts commited each cycle
system.cpu.commit.numCommittedDist::7               0      0.00%     90.86% # Number of insts commited each cycle
system.cpu.commit.numCommittedDist::8            2062      9.14%    100.00% # Number of insts commited each cycle
system.cpu.commit.numCommittedDist::overflows            0      0.00%    100.00% # Number of insts commited each cycle
system.cpu.commit.numCommittedDist::min_value            0                       # Number of insts commited each cycle
system.cpu.commit.numCommittedDist::max_value            8                       # Number of insts commited each cycle
system.cpu.commit.numCommittedDist::total        22563                       # Number of insts commited each cycle
system.cpu.commit.instsCommitted                14396                       # Number of instructions committed
system.cpu.commit.opsCommitted                  28796                       # Number of ops (including micro ops) committed
system.cpu.commit.memRefs                        2050                       # Number of memory references committed
system.cpu.commit.loads                          2049                       # Number of loads committed
system.cpu.commit.amos                              0                       # Number of atomic instructions committed
system.cpu.commit.membars                           0                       # Number of memory barriers committed
system.cpu.commit.branches                       2066                       # Number of branches committed
system.cpu.commit.vector                            0                       # Number of committed Vector instructions.
system.cpu.commit.floating                          0                       # Number of committed floating point instructions.
system.cpu.commit.integer                       28786                       # Number of committed integer instructions.
system.cpu.commit.functionCalls                     1                       # Number of function calls committed.
system.cpu.commit.committedInstType_0::No_OpClass            2      0.01%      0.01% # Class of committed instruction
system.cpu.commit.committedInstType_0::IntAlu        26744     92.87%     92.88% # Class of committed instruction
system.cpu.commit.committedInstType_0::IntMult            0      0.00%     92.88% # Class of committed instruction
system.cpu.commit.committedInstType_0::IntDiv            0      0.00%     92.88% # Class of committed instruction
system.cpu.commit.committedInstType_0::FloatAdd            0      0.00%     92.88% # Class of committed instruction
system.cpu.commit.committedInstType_0::FloatCmp            0      0.00%     92.88% # Class of committed instruction
system.cpu.commit.committedInstType_0::FloatCvt            0      0.00%     92.88% # Class of committed instruction
system.cpu.commit.committedInstType_0::FloatMult            0      0.00%     92.88% # Class of committed instruction
system.cpu.commit.committedInstType_0::FloatMultAcc            0      0.00%     92.88% # Class of committed instruction
system.cpu.commit.committedInstType_0::FloatDiv            0      0.00%     92.88% # Class of committed instruction
system.cpu.commit.committedInstType_0::FloatMisc            0      0.00%     92.88% # Class of committed instruction
system.cpu.commit.committedInstType_0::FloatSqrt            0      0.00%     92.88% # Class of committed instruction
system.cpu.commit.committedInstType_0::SimdAdd            0      0.00%     92.88% # Class of committed instruction
system.cpu.commit.committedInstType_0::SimdAddAcc            0      0.00%     92.88% # Class of committed instruction
system.cpu.commit.committedInstType_0::SimdAlu            0      0.00%     92.88% # Class of committed instruction
system.cpu.commit.committedInstType_0::SimdCmp            0      0.00%     92.88% # Class of committed instruction
system.cpu.commit.committedInstType_0::SimdCvt            0      0.00%     92.88% # Class of committed instruction
system.cpu.commit.committedInstType_0::SimdMisc            0      0.00%     92.88% # Class of committed instruction
system.cpu.commit.committedInstType_0::SimdMult            0      0.00%     92.88% # Class of committed instruction
system.cpu.commit.committedInstType_0::SimdMultAcc            0      0.00%     92.88% # Class of committed instruction
system.cpu.commit.committedInstType_0::SimdShift            0      0.00%     92.88% # Class of committed instruction
system.cpu.commit.committedInstType_0::SimdShiftAcc            0      0.00%     92.88% # Class of committed instruction
system.cpu.commit.committedInstType_0::SimdDiv            0      0.00%     92.88% # Class of committed instruction
system.cpu.commit.committedInstType_0::SimdSqrt            0      0.00%     92.88% # Class of committed instruction
system.cpu.commit.committedInstType_0::SimdFloatAdd            0      0.00%     92.88% # Class of committed instruction
system.cpu.commit.committedInstType_0::SimdFloatAlu            0      0.00%     92.88% # Class of committed instruction
system.cpu.commit.committedInstType_0::SimdFloatCmp            0      0.00%     92.88% # Class of committed instruction
system.cpu.commit.committedInstType_0::SimdFloatCvt            0      0.00%     92.88% # Class of committed instruction
system.cpu.commit.committedInstType_0::SimdFloatDiv            0      0.00%     92.88% # Class of committed instruction
system.cpu.commit.committedInstType_0::SimdFloatMisc            0      0.00%     92.88% # Class of committed instruction
system.cpu.commit.committedInstType_0::SimdFloatMult            0      0.00%     92.88% # Class of committed instruction
system.cpu.commit.committedInstType_0::SimdFloatMultAcc            0      0.00%     92.88% # Class of committed instruction
system.cpu.commit.committedInstType_0::SimdFloatSqrt            0      0.00%     92.88% # Class of committed instruction
system.cpu.commit.committedInstType_0::SimdReduceAdd            0      0.00%     92.88% # Class of committed instruction
system.cpu.commit.committedInstType_0::SimdReduceAlu            0      0.00%     92.88% # Class of committed instruction
system.cpu.commit.committedInstType_0::SimdReduceCmp            0      0.00%     92.88% # Class of committed instruction
system.cpu.commit.committedInstType_0::SimdFloatReduceAdd            0      0.00%     92.88% # Class of committed instruction
system.cpu.commit.committedInstType_0::SimdFloatReduceCmp            0      0.00%     92.88% # Class of committed instruction
system.cpu.commit.committedInstType_0::SimdAes            0      0.00%     92.88% # Class of committed instruction
system.cpu.commit.committedInstType_0::SimdAesMix            0      0.00%     92.88% # Class of committed instruction
system.cpu.commit.committedInstType_0::SimdSha1Hash            0      0.00%     92.88% # Class of committed instruction
system.cpu.commit.committedInstType_0::SimdSha1Hash2            0      0.00%     92.88% # Class of committed instruction
system.cpu.commit.committedInstType_0::SimdSha256Hash            0      0.00%     92.88% # Class of committed instruction
system.cpu.commit.committedInstType_0::SimdSha256Hash2            0      0.00%     92.88% # Class of committed instruction
system.cpu.commit.committedInstType_0::SimdShaSigma2            0      0.00%     92.88% # Class of committed instruction
system.cpu.commit.committedInstType_0::SimdShaSigma3            0      0.00%     92.88% # Class of committed instruction
system.cpu.commit.committedInstType_0::SimdPredAlu            0      0.00%     92.88% # Class of committed instruction
system.cpu.commit.committedInstType_0::MemRead         2049      7.12%    100.00% # Class of committed instruction
system.cpu.commit.committedInstType_0::MemWrite            1      0.00%    100.00% # Class of committed instruction
system.cpu.commit.committedInstType_0::FloatMemRead            0      0.00%    100.00% # Class of committed instruction
system.cpu.commit.committedInstType_0::FloatMemWrite            0      0.00%    100.00% # Class of committed instruction
system.cpu.commit.committedInstType_0::IprAccess            0      0.00%    100.00% # Class of committed instruction
system.cpu.commit.committedInstType_0::InstPrefetch            0      0.00%    100.00% # Class of committed instruction
system.cpu.commit.committedInstType_0::total        28796                       # Class of committed instruction
system.cpu.commit.commitEligibleSamples          2062                       # number cycles where commit BW limit reached
system.cpu.decode.idleCycles                     6143                       # Number of cycles decode is idle
system.cpu.decode.blockedCycles                  6174                       # Number of cycles decode is blocked
system.cpu.decode.runCycles                     12293                       # Number of cycles decode is running
system.cpu.decode.unblockCycles                  4093                       # Number of cycles decode is unblocking
system.cpu.decode.squashCycles                   2048                       # Number of cycles decode is squashing
system.cpu.decode.branchResolved                 4091                       # Number of times decode resolved a  branch
system.cpu.decode.branchMispred                     1                       # Number of times decode detected a branch misprediction
system.cpu.decode.decodedInsts                 131060                       # Number of instructions handled by decode
system.cpu.decode.squashedInsts                     8                       # Number of squashed instructions handled by decode
system.cpu.dtb.rdAccesses                        4097                       # TLB accesses on read requests
system.cpu.dtb.wrAccesses                           3                       # TLB accesses on write requests
system.cpu.dtb.rdMisses                             0                       # TLB misses on read requests
system.cpu.dtb.wrMisses                             0                       # TLB misses on write requests
system.cpu.dtb.walker.power_state.pwrStateResidencyTicks::UNDEFINED     65856000                       # Cumulative time (in ticks) in various power states
system.cpu.fetch.icacheStallCycles               2094                       # Number of cycles fetch is stalled on an Icache miss
system.cpu.fetch.insts                          94088                       # Number of instructions fetch has processed
system.cpu.fetch.branches                       16376                       # Number of branches that fetch encountered
system.cpu.fetch.predictedBranches               8191                       # Number of branches that fetch has predicted taken
system.cpu.fetch.cycles                         26608                       # Number of cycles fetch has run and was not squashing or blocked
system.cpu.fetch.squashCycles                    4098                       # Number of cycles fetch has spent squashing
system.cpu.fetch.cacheLines                     12284                       # Number of cache lines fetched
system.cpu.fetch.icacheSquashes                     9                       # Number of outstanding Icache misses that were squashed
system.cpu.fetch.nisnDist::samples              30751                       # Number of instructions fetched each cycle (Total)
system.cpu.fetch.nisnDist::mean              5.855940                       # Number of instructions fetched each cycle (Total)
system.cpu.fetch.nisnDist::stdev             2.949305                       # Number of instructions fetched each cycle (Total)
system.cpu.fetch.nisnDist::underflows               0      0.00%      0.00% # Number of instructions fetched each cycle (Total)
system.cpu.fetch.nisnDist::0                     4147     13.49%     13.49% # Number of instructions fetched each cycle (Total)
system.cpu.fetch.nisnDist::1                        8      0.03%     13.51% # Number of instructions fetched each cycle (Total)
system.cpu.fetch.nisnDist::2                     2044      6.65%     20.16% # Number of instructions fetched each cycle (Total)
system.cpu.fetch.nisnDist::3                     2042      6.64%     26.80% # Number of instructions fetched each cycle (Total)
system.cpu.fetch.nisnDist::4                        0      0.00%     26.80% # Number of instructions fetched each cycle (Total)
system.cpu.fetch.nisnDist::5                        0      0.00%     26.80% # Number of instructions fetched each cycle (Total)
system.cpu.fetch.nisnDist::6                     4089     13.30%     40.10% # Number of instructions fetched each cycle (Total)
system.cpu.fetch.nisnDist::7                     2048      6.66%     46.76% # Number of instructions fetched each cycle (Total)
system.cpu.fetch.nisnDist::8                    16373     53.24%    100.00% # Number of instructions fetched each cycle (Total)
system.cpu.fetch.nisnDist::overflows                0      0.00%    100.00% # Number of instructions fetched each cycle (Total)
system.cpu.fetch.nisnDist::min_value                0                       # Number of instructions fetched each cycle (Total)
system.cpu.fetch.nisnDist::max_value                8                       # Number of instructions fetched each cycle (Total)
system.cpu.fetch.nisnDist::total                30751                       # Number of instructions fetched each cycle (Total)
system.cpu.fetch.branchRate                  0.532414                       # Number of branch fetches per cycle
system.cpu.fetch.rate                        3.058977                       # Number of inst fetches per cycle
system.cpu.interrupts.clk_domain.clock          16000                       # Clock period in ticks
system.cpu.itb.rdAccesses                           0                       # TLB accesses on read requests
system.cpu.itb.wrAccesses                       12284                       # TLB accesses on write requests
system.cpu.itb.rdMisses                             0                       # TLB misses on read requests
system.cpu.itb.wrMisses                             0                       # TLB misses on write requests
system.cpu.itb.walker.power_state.pwrStateResidencyTicks::UNDEFINED     65856000                       # Cumulative time (in ticks) in various power states
system.cpu.l1d.demand_hits::.cpu.data            4076                       # number of demand (read+write) hits
system.cpu.l1d.demand_hits::total                4076                       # number of demand (read+write) hits
system.cpu.l1d.overall_hits::.cpu.data           4076                       # number of overall hits
system.cpu.l1d.overall_hits::total               4076                       # number of overall hits
system.cpu.l1d.demand_misses::.cpu.data            21                       # number of demand (read+write) misses
system.cpu.l1d.demand_misses::total                21                       # number of demand (read+write) misses
system.cpu.l1d.overall_misses::.cpu.data           21                       # number of overall misses
system.cpu.l1d.overall_misses::total               21                       # number of overall misses
system.cpu.l1d.demand_miss_latency::.cpu.data       840000                       # number of demand (read+write) miss cycles
system.cpu.l1d.demand_miss_latency::total       840000                       # number of demand (read+write) miss cycles
system.cpu.l1d.overall_miss_latency::.cpu.data       840000                       # number of overall miss cycles
system.cpu.l1d.overall_miss_latency::total       840000                       # number of overall miss cycles
system.cpu.l1d.demand_accesses::.cpu.data         4097                       # number of demand (read+write) accesses
system.cpu.l1d.demand_accesses::total            4097                       # number of demand (read+write) accesses
system.cpu.l1d.overall_accesses::.cpu.data         4097                       # number of overall (read+write) accesses
system.cpu.l1d.overall_accesses::total           4097                       # number of overall (read+write) accesses
system.cpu.l1d.demand_miss_rate::.cpu.data     0.005126                       # miss rate for demand accesses
system.cpu.l1d.demand_miss_rate::total       0.005126                       # miss rate for demand accesses
system.cpu.l1d.overall_miss_rate::.cpu.data     0.005126                       # miss rate for overall accesses
system.cpu.l1d.overall_miss_rate::total      0.005126                       # miss rate for overall accesses
system.cpu.l1d.demand_avg_miss_latency::.cpu.data        40000                       # average overall miss latency
system.cpu.l1d.demand_avg_miss_latency::total        40000                       # average overall miss latency
system.cpu.l1d.overall_avg_miss_latency::.cpu.data        40000                       # average overall miss latency
system.cpu.l1d.overall_avg_miss_latency::total        40000                       # average overall miss latency
system.cpu.l1d.blocked_cycles::no_mshrs             0                       # number of cycles access was blocked
system.cpu.l1d.blocked_cycles::no_targets            0                       # number of cycles access was blocked
system.cpu.l1d.blocked::no_mshrs                    0                       # number of cycles access was blocked
system.cpu.l1d.blocked::no_targets                  0                       # number of cycles access was blocked
system.cpu.l1d.avg_blocked_cycles::no_mshrs          nan                       # average number of cycles each access was blocked
system.cpu.l1d.avg_blocked_cycles::no_targets          nan                       # average number of cycles each access was blocked
system.cpu.l1d.demand_mshr_hits::.cpu.data           17                       # number of demand (read+write) MSHR hits
system.cpu.l1d.demand_mshr_hits::total             17                       # number of demand (read+write) MSHR hits
system.cpu.l1d.overall_mshr_hits::.cpu.data           17                       # number of overall MSHR hits
system.cpu.l1d.overall_mshr_hits::total            17                       # number of overall MSHR hits
system.cpu.l1d.demand_mshr_misses::.cpu.data            4                       # number of demand (read+write) MSHR misses
system.cpu.l1d.demand_mshr_misses::total            4                       # number of demand (read+write) MSHR misses
system.cpu.l1d.overall_mshr_misses::.cpu.data            4                       # number of overall MSHR misses
system.cpu.l1d.overall_mshr_misses::total            4                       # number of overall MSHR misses
system.cpu.l1d.demand_mshr_miss_latency::.cpu.data       276000                       # number of demand (read+write) MSHR miss cycles
system.cpu.l1d.demand_mshr_miss_latency::total       276000                       # number of demand (read+write) MSHR miss cycles
system.cpu.l1d.overall_mshr_miss_latency::.cpu.data       276000                       # number of overall MSHR miss cycles
system.cpu.l1d.overall_mshr_miss_latency::total       276000                       # number of overall MSHR miss cycles
system.cpu.l1d.demand_mshr_miss_rate::.cpu.data     0.000976                       # mshr miss rate for demand accesses
system.cpu.l1d.demand_mshr_miss_rate::total     0.000976                       # mshr miss rate for demand accesses
system.cpu.l1d.overall_mshr_miss_rate::.cpu.data     0.000976                       # mshr miss rate for overall accesses
system.cpu.l1d.overall_mshr_miss_rate::total     0.000976                       # mshr miss rate for overall accesses
system.cpu.l1d.demand_avg_mshr_miss_latency::.cpu.data        69000                       # average overall mshr miss latency
system.cpu.l1d.demand_avg_mshr_miss_latency::total        69000                       # average overall mshr miss latency
system.cpu.l1d.overall_avg_mshr_miss_latency::.cpu.data        69000                       # average overall mshr miss latency
system.cpu.l1d.overall_avg_mshr_miss_latency::total        69000                       # average overall mshr miss latency
system.cpu.l1d.replacements                         0                       # number of replacements
system.cpu.l1d.ReadReq_hits::.cpu.data           4075                       # number of ReadReq hits
system.cpu.l1d.ReadReq_hits::total               4075                       # number of ReadReq hits
system.cpu.l1d.ReadReq_misses::.cpu.data           21                       # number of ReadReq misses
system.cpu.l1d.ReadReq_misses::total               21                       # number of ReadReq misses
system.cpu.l1d.ReadReq_miss_latency::.cpu.data       840000                       # number of ReadReq miss cycles
system.cpu.l1d.ReadReq_miss_latency::total       840000                       # number of ReadReq miss cycles
system.cpu.l1d.ReadReq_accesses::.cpu.data         4096                       # number of ReadReq accesses(hits+misses)
system.cpu.l1d.ReadReq_accesses::total           4096                       # number of ReadReq accesses(hits+misses)
system.cpu.l1d.ReadReq_miss_rate::.cpu.data     0.005127                       # miss rate for ReadReq accesses
system.cpu.l1d.ReadReq_miss_rate::total      0.005127                       # miss rate for ReadReq accesses
system.cpu.l1d.ReadReq_avg_miss_latency::.cpu.data        40000                       # average ReadReq miss latency
system.cpu.l1d.ReadReq_avg_miss_latency::total        40000                       # average ReadReq miss latency
system.cpu.l1d.ReadReq_mshr_hits::.cpu.data           17                       # number of ReadReq MSHR hits
system.cpu.l1d.ReadReq_mshr_hits::total            17                       # number of ReadReq MSHR hits
system.cpu.l1d.ReadReq_mshr_misses::.cpu.data            4                       # number of ReadReq MSHR misses
system.cpu.l1d.ReadReq_mshr_misses::total            4                       # number of ReadReq MSHR misses
system.cpu.l1d.ReadReq_mshr_miss_latency::.cpu.data       276000                       # number of ReadReq MSHR miss cycles
system.cpu.l1d.ReadReq_mshr_miss_latency::total       276000                       # number of ReadReq MSHR miss cycles
system.cpu.l1d.ReadReq_mshr_miss_rate::.cpu.data     0.000977                       # mshr miss rate for ReadReq accesses
system.cpu.l1d.ReadReq_mshr_miss_rate::total     0.000977                       # mshr miss rate for ReadReq accesses
system.cpu.l1d.ReadReq_avg_mshr_miss_latency::.cpu.data        69000                       # average ReadReq mshr miss latency
system.cpu.l1d.ReadReq_avg_mshr_miss_latency::total        69000                       # average ReadReq mshr miss latency
system.cpu.l1d.WriteReq_hits::.cpu.data             1                       # number of WriteReq hits
system.cpu.l1d.WriteReq_hits::total                 1                       # number of WriteReq hits
system.cpu.l1d.WriteReq_accesses::.cpu.data            1                       # number of WriteReq accesses(hits+misses)
system.cpu.l1d.WriteReq_accesses::total             1                       # number of WriteReq accesses(hits+misses)
system.cpu.l1d.power_state.pwrStateResidencyTicks::UNDEFINED     65856000                       # Cumulative time (in ticks) in various power states
system.cpu.l1d.tags.tagsinuse              222.801483                       # Cycle average of tags in use
system.cpu.l1d.tags.total_refs                      0                       # Total number of references to valid blocks.
system.cpu.l1d.tags.sampled_refs                    0                       # Sample count of references to valid blocks.
system.cpu.l1d.tags.avg_refs                      nan                       # Average number of references to valid blocks.
system.cpu.l1d.tags.warmup_cycle                    0                       # Cycle when the warmup percentage was hit.
system.cpu.l1d.tags.occ_blocks::.cpu.data   222.801483                       # Average occupied blocks per requestor
system.cpu.l1d.tags.occ_percent::.cpu.data     0.435159                       # Average percentage of cache occupancy
system.cpu.l1d.tags.occ_percent::total       0.435159                       # Average percentage of cache occupancy
system.cpu.l1d.tags.occ_task_id_blocks::1024          223                       # Occupied blocks per task id
system.cpu.l1d.tags.age_task_id_blocks_1024::1          223                       # Occupied blocks per task id
system.cpu.l1d.tags.occ_task_id_percent::1024     0.435547                       # Percentage of cache occupancy per task id
system.cpu.l1d.tags.tag_accesses                32780                       # Number of tag accesses
system.cpu.l1d.tags.data_accesses               32780                       # Number of data accesses
system.cpu.l1d.tags.power_state.pwrStateResidencyTicks::UNDEFINED     65856000                       # Cumulative time (in ticks) in various power states
system.cpu.l1i.demand_hits::.cpu.inst           12273                       # number of demand (read+write) hits
system.cpu.l1i.demand_hits::total               12273                       # number of demand (read+write) hits
system.cpu.l1i.overall_hits::.cpu.inst          12273                       # number of overall hits
system.cpu.l1i.overall_hits::total              12273                       # number of overall hits
system.cpu.l1i.demand_misses::.cpu.inst            11                       # number of demand (read+write) misses
system.cpu.l1i.demand_misses::total                11                       # number of demand (read+write) misses
system.cpu.l1i.overall_misses::.cpu.inst           11                       # number of overall misses
system.cpu.l1i.overall_misses::total               11                       # number of overall misses
system.cpu.l1i.demand_miss_latency::.cpu.inst       437000                       # number of demand (read+write) miss cycles
system.cpu.l1i.demand_miss_latency::total       437000                       # number of demand (read+write) miss cycles
system.cpu.l1i.overall_miss_latency::.cpu.inst       437000                       # number of overall miss cycles
system.cpu.l1i.overall_miss_latency::total       437000                       # number of overall miss cycles
system.cpu.l1i.demand_accesses::.cpu.inst        12284                       # number of demand (read+write) accesses
system.cpu.l1i.demand_accesses::total           12284                       # number of demand (read+write) accesses
system.cpu.l1i.overall_accesses::.cpu.inst        12284                       # number of overall (read+write) accesses
system.cpu.l1i.overall_accesses::total          12284                       # number of overall (read+write) accesses
system.cpu.l1i.demand_miss_rate::.cpu.inst     0.000895                       # miss rate for demand accesses
system.cpu.l1i.demand_miss_rate::total       0.000895                       # miss rate for demand accesses
system.cpu.l1i.overall_miss_rate::.cpu.inst     0.000895                       # miss rate for overall accesses
system.cpu.l1i.overall_miss_rate::total      0.000895                       # miss rate for overall accesses
system.cpu.l1i.demand_avg_miss_latency::.cpu.inst 39727.272727                       # average overall miss latency
system.cpu.l1i.demand_avg_miss_latency::total 39727.272727                       # average overall miss latency
system.cpu.l1i.overall_avg_miss_latency::.cpu.inst 39727.272727                       # average overall miss latency
system.cpu.l1i.overall_avg_miss_latency::total 39727.272727                       # average overall miss latency
system.cpu.l1i.blocked_cycles::no_mshrs             0                       # number of cycles access was blocked
system.cpu.l1i.blocked_cycles::no_targets            0                       # number of cycles access was blocked
system.cpu.l1i.blocked::no_mshrs                    0                       # number of cycles access was blocked
system.cpu.l1i.blocked::no_targets                  0                       # number of cycles access was blocked
system.cpu.l1i.avg_blocked_cycles::no_mshrs          nan                       # average number of cycles each access was blocked
system.cpu.l1i.avg_blocked_cycles::no_targets          nan                       # average number of cycles each access was blocked
system.cpu.l1i.demand_mshr_hits::.cpu.inst            8                       # number of demand (read+write) MSHR hits
system.cpu.l1i.demand_mshr_hits::total              8                       # number of demand (read+write) MSHR hits
system.cpu.l1i.overall_mshr_hits::.cpu.inst            8                       # number of overall MSHR hits
system.cpu.l1i.overall_mshr_hits::total             8                       # number of overall MSHR hits
system.cpu.l1i.demand_mshr_misses::.cpu.inst            3                       # number of demand (read+write) MSHR misses
system.cpu.l1i.demand_mshr_misses::total            3                       # number of demand (read+write) MSHR misses
system.cpu.l1i.overall_mshr_misses::.cpu.inst            3                       # number of overall MSHR misses
system.cpu.l1i.overall_mshr_misses::total            3                       # number of overall MSHR misses
system.cpu.l1i.demand_mshr_miss_latency::.cpu.inst       144000                       # number of demand (read+write) MSHR miss cycles
system.cpu.l1i.demand_mshr_miss_latency::total       144000                       # number of demand (read+write) MSHR miss cycles
system.cpu.l1i.overall_mshr_miss_latency::.cpu.inst       144000                       # number of overall MSHR miss cycles
system.cpu.l1i.overall_mshr_miss_latency::total       144000                       # number of overall MSHR miss cycles
system.cpu.l1i.demand_mshr_miss_rate::.cpu.inst     0.000244                       # mshr miss rate for demand accesses
system.cpu.l1i.demand_mshr_miss_rate::total     0.000244                       # mshr miss rate for demand accesses
system.cpu.l1i.overall_mshr_miss_rate::.cpu.inst     0.000244                       # mshr miss rate for overall accesses
system.cpu.l1i.overall_mshr_miss_rate::total     0.000244                       # mshr miss rate for overall accesses
system.cpu.l1i.demand_avg_mshr_miss_latency::.cpu.inst        48000                       # average overall mshr miss latency
system.cpu.l1i.demand_avg_mshr_miss_latency::total        48000                       # average overall mshr miss latency
system.cpu.l1i.overall_avg_mshr_miss_latency::.cpu.inst        48000                       # average overall mshr miss latency
system.cpu.l1i.overall_avg_mshr_miss_latency::total        48000                       # average overall mshr miss latency
system.cpu.l1i.replacements                         1                       # number of replacements
system.cpu.l1i.ReadReq_hits::.cpu.inst          12273                       # number of ReadReq hits
system.cpu.l1i.ReadReq_hits::total              12273                       # number of ReadReq hits
system.cpu.l1i.ReadReq_misses::.cpu.inst           11                       # number of ReadReq misses
system.cpu.l1i.ReadReq_misses::total               11                       # number of ReadReq misses
system.cpu.l1i.ReadReq_miss_latency::.cpu.inst       437000                       # number of ReadReq miss cycles
system.cpu.l1i.ReadReq_miss_latency::total       437000                       # number of ReadReq miss cycles
system.cpu.l1i.ReadReq_accesses::.cpu.inst        12284                       # number of ReadReq accesses(hits+misses)
system.cpu.l1i.ReadReq_accesses::total          12284                       # number of ReadReq accesses(hits+misses)
system.cpu.l1i.ReadReq_miss_rate::.cpu.inst     0.000895                       # miss rate for ReadReq accesses
system.cpu.l1i.ReadReq_miss_rate::total      0.000895                       # miss rate for ReadReq accesses
system.cpu.l1i.ReadReq_avg_miss_latency::.cpu.inst 39727.272727                       # average ReadReq miss latency
system.cpu.l1i.ReadReq_avg_miss_latency::total 39727.272727                       # average ReadReq miss latency
system.cpu.l1i.ReadReq_mshr_hits::.cpu.inst            8                       # number of ReadReq MSHR hits
system.cpu.l1i.ReadReq_mshr_hits::total             8                       # number of ReadReq MSHR hits
system.cpu.l1i.ReadReq_mshr_misses::.cpu.inst            3                       # number of ReadReq MSHR misses
system.cpu.l1i.ReadReq_mshr_misses::total            3                       # number of ReadReq MSHR misses
system.cpu.l1i.ReadReq_mshr_miss_latency::.cpu.inst       144000                       # number of ReadReq MSHR miss cycles
system.cpu.l1i.ReadReq_mshr_miss_latency::total       144000                       # number of ReadReq MSHR miss cycles
system.cpu.l1i.ReadReq_mshr_miss_rate::.cpu.inst     0.000244                       # mshr miss rate for ReadReq accesses
system.cpu.l1i.ReadReq_mshr_miss_rate::total     0.000244                       # mshr miss rate for ReadReq accesses
system.cpu.l1i.ReadReq_avg_mshr_miss_latency::.cpu.inst        48000                       # average ReadReq mshr miss latency
system.cpu.l1i.ReadReq_avg_mshr_miss_latency::total        48000                       # average ReadReq mshr miss latency
system.cpu.l1i.power_state.pwrStateResidencyTicks::UNDEFINED     65856000                       # Cumulative time (in ticks) in various power states
system.cpu.l1i.tags.tagsinuse              417.994636                       # Cycle average of tags in use
system.cpu.l1i.tags.total_refs                      1                       # Total number of references to valid blocks.
system.cpu.l1i.tags.sampled_refs                    1                       # Sample count of references to valid blocks.
system.cpu.l1i.tags.avg_refs                        1                       # Average number of references to valid blocks.
system.cpu.l1i.tags.warmup_cycle                    0                       # Cycle when the warmup percentage was hit.
system.cpu.l1i.tags.occ_blocks::.cpu.inst   417.994636                       # Average occupied blocks per requestor
system.cpu.l1i.tags.occ_percent::.cpu.inst     0.816396                       # Average percentage of cache occupancy
system.cpu.l1i.tags.occ_percent::total       0.816396                       # Average percentage of cache occupancy
system.cpu.l1i.tags.occ_task_id_blocks::1024          418                       # Occupied blocks per task id
system.cpu.l1i.tags.age_task_id_blocks_1024::1          418                       # Occupied blocks per task id
system.cpu.l1i.tags.occ_task_id_percent::1024     0.816406                       # Percentage of cache occupancy per task id
system.cpu.l1i.tags.tag_accesses                98274                       # Number of tag accesses
system.cpu.l1i.tags.data_accesses               98274                       # Number of data accesses
system.cpu.l1i.tags.power_state.pwrStateResidencyTicks::UNDEFINED     65856000                       # Cumulative time (in ticks) in various power states
system.cpu.lsq0.forwLoads                           1                       # Number of loads that had data forwarded from stores
system.cpu.lsq0.squashedLoads                    4103                       # Number of loads squashed
system.cpu.lsq0.ignoredResponses                    0                       # Number of memory responses ignored because the instruction is squashed
system.cpu.lsq0.memOrderViolation                   1                       # Number of memory ordering violations
system.cpu.lsq0.squashedStores                   6139                       # Number of stores squashed
system.cpu.lsq0.rescheduledLoads                    0                       # Number of loads that were rescheduled
system.cpu.lsq0.blockedByCache                      0                       # Number of times an access to memory failed due to the cache being blocked
system.cpu.power_state.pwrStateResidencyTicks::ON     65856000                       # Cumulative time (in ticks) in various power states
system.cpu.rename.squashCycles                   2048                       # Number of cycles rename is squashing
system.cpu.rename.idleCycles                     8188                       # Number of cycles rename is idle
system.cpu.rename.blockCycles                    6169                       # Number of cycles rename is blocking
system.cpu.rename.serializeStallCycles              0                       # count of cycles rename stalledfor serializing inst
system.cpu.rename.runCycles                     14338                       # Number of cycles rename is running
system.cpu.rename.unblockCycles                     8                       # Number of cycles rename is unblocking
system.cpu.rename.renamedInsts                 114696                       # Number of instructions processed by rename
system.cpu.rename.ROBFullEvents                     8                       # Number of times rename has blocked due to ROB full
system.cpu.rename.renamedOperands              126986                       # Number of destination operands rename has renamed
system.cpu.rename.lookups                      223293                       # Number of register rename lookups that rename has made
system.cpu.rename.intLookups                   155676                       # Number of integer rename lookups
system.cpu.rename.committedMaps                 51332                       # Number of HB maps that are committed
system.cpu.rename.undoneMaps                    75709                       # Number of HB maps that are undone due to squashing
system.cpu.rename.serializing                       0                       # count of serializing insts renamed
system.cpu.rename.tempSerializing                   0                       # count of temporary serializing insts renamed
system.cpu.rename.skidInsts                        64                       # count of insts added to the skid buffer
system.cpu.rob.reads                           102497                       # The number of ROB reads
system.cpu.rob.writes                          172182                       # The number of ROB writes
system.cpu.thread_0.numInsts                    14396                       # Number of Instructions committed
system.cpu.thread_0.numOps                      28796                       # Number of Ops committed
system.cpu.thread_0.numMemRefs                      0                       # Number of Memory References
system.l1_to_l2.trans_dist::ReadResp                6                       # Transaction distribution
system.l1_to_l2.trans_dist::CleanEvict              1                       # Transaction distribution
system.l1_to_l2.trans_dist::ReadSharedReq            7                       # Transaction distribution
system.l1_to_l2.pkt_count_system.cpu.l1d.mem_side_port::system.l2cache.cpu_side_port            8                       # Packet count per connected requestor and responder (bytes)
system.l1_to_l2.pkt_count_system.cpu.l1i.mem_side_port::system.l2cache.cpu_side_port            6                       # Packet count per connected requestor and responder (bytes)
system.l1_to_l2.pkt_count::total                   14                       # Packet count per connected requestor and responder (bytes)
system.l1_to_l2.pkt_size_system.cpu.l1d.mem_side_port::system.l2cache.cpu_side_port          256                       # Cumulative packet size per connected requestor and responder (bytes)
system.l1_to_l2.pkt_size_system.cpu.l1i.mem_side_port::system.l2cache.cpu_side_port          128                       # Cumulative packet size per connected requestor and responder (bytes)
system.l1_to_l2.pkt_size::total                   384                       # Cumulative packet size per connected requestor and responder (bytes)
system.l1_to_l2.snoops                              0                       # Total snoops (count)
system.l1_to_l2.snoopTraffic                        0                       # Total snoop traffic (bytes)
system.l1_to_l2.snoop_fanout::samples               7                       # Request fanout histogram
system.l1_to_l2.snoop_fanout::mean                  0                       # Request fanout histogram
system.l1_to_l2.snoop_fanout::stdev                 0                       # Request fanout histogram
system.l1_to_l2.snoop_fanout::underflows            0      0.00%      0.00% # Request fanout histogram
system.l1_to_l2.snoop_fanout::0                     7    100.00%    100.00% # Request fanout histogram
system.l1_to_l2.snoop_fanout::1                     0      0.00%    100.00% # Request fanout histogram
system.l1_to_l2.snoop_fanout::2                     0      0.00%    100.00% # Request fanout histogram
system.l1_to_l2.snoop_fanout::overflows             0      0.00%    100.00% # Request fanout histogram
system.l1_to_l2.snoop_fanout::min_value             0                       # Request fanout histogram
system.l1_to_l2.snoop_fanout::max_value             0                       # Request fanout histogram
system.l1_to_l2.snoop_fanout::total                 7                       # Request fanout histogram
system.l1_to_l2.power_state.pwrStateResidencyTicks::UNDEFINED     65856000                       # Cumulative time (in ticks) in various power states
system.l1_to_l2.reqLayer0.occupancy              8000                       # Layer occupancy (ticks)
system.l1_to_l2.reqLayer0.utilization             0.0                       # Layer utilization (%)
system.l1_to_l2.respLayer0.occupancy             8000                       # Layer occupancy (ticks)
system.l1_to_l2.respLayer0.utilization            0.0                       # Layer utilization (%)
system.l1_to_l2.respLayer1.occupancy             4000                       # Layer occupancy (ticks)
system.l1_to_l2.respLayer1.utilization            0.0                       # Layer utilization (%)
system.l2cache.demand_misses::.cpu.inst             3                       # number of demand (read+write) misses
system.l2cache.demand_misses::.cpu.data             4                       # number of demand (read+write) misses
system.l2cache.demand_misses::total                 7                       # number of demand (read+write) misses
system.l2cache.overall_misses::.cpu.inst            3                       # number of overall misses
system.l2cache.overall_misses::.cpu.data            4                       # number of overall misses
system.l2cache.overall_misses::total                7                       # number of overall misses
system.l2cache.demand_miss_latency::.cpu.inst       140000                       # number of demand (read+write) miss cycles
system.l2cache.demand_miss_latency::.cpu.data       268000                       # number of demand (read+write) miss cycles
system.l2cache.demand_miss_latency::total       408000                       # number of demand (read+write) miss cycles
system.l2cache.overall_miss_latency::.cpu.inst       140000                       # number of overall miss cycles
system.l2cache.overall_miss_latency::.cpu.data       268000                       # number of overall miss cycles
system.l2cache.overall_miss_latency::total       408000                       # number of overall miss cycles
system.l2cache.demand_accesses::.cpu.inst            3                       # number of demand (read+write) accesses
system.l2cache.demand_accesses::.cpu.data            4                       # number of demand (read+write) accesses
system.l2cache.demand_accesses::total               7                       # number of demand (read+write) accesses
system.l2cache.overall_accesses::.cpu.inst            3                       # number of overall (read+write) accesses
system.l2cache.overall_accesses::.cpu.data            4                       # number of overall (read+write) accesses
system.l2cache.overall_accesses::total              7                       # number of overall (read+write) accesses
system.l2cache.demand_miss_rate::.cpu.inst            1                       # miss rate for demand accesses
system.l2cache.demand_miss_rate::.cpu.data            1                       # miss rate for demand accesses
system.l2cache.demand_miss_rate::total              1                       # miss rate for demand accesses
system.l2cache.overall_miss_rate::.cpu.inst            1                       # miss rate for overall accesses
system.l2cache.overall_miss_rate::.cpu.data            1                       # miss rate for overall accesses
system.l2cache.overall_miss_rate::total             1                       # miss rate for overall accesses
system.l2cache.demand_avg_miss_latency::.cpu.inst 46666.666667                       # average overall miss latency
system.l2cache.demand_avg_miss_latency::.cpu.data        67000                       # average overall miss latency
system.l2cache.demand_avg_miss_latency::total 58285.714286                       # average overall miss latency
system.l2cache.overall_avg_miss_latency::.cpu.inst 46666.666667                       # average overall miss latency
system.l2cache.overall_avg_miss_latency::.cpu.data        67000                       # average overall miss latency
system.l2cache.overall_avg_miss_latency::total 58285.714286                       # average overall miss latency
system.l2cache.blocked_cycles::no_mshrs             0                       # number of cycles access was blocked
system.l2cache.blocked_cycles::no_targets            0                       # number of cycles access was blocked
system.l2cache.blocked::no_mshrs                    0                       # number of cycles access was blocked
system.l2cache.blocked::no_targets                  0                       # number of cycles access was blocked
system.l2cache.avg_blocked_cycles::no_mshrs          nan                       # average number of cycles each access was blocked
system.l2cache.avg_blocked_cycles::no_targets          nan                       # average number of cycles each access was blocked
system.l2cache.demand_mshr_misses::.cpu.inst            3                       # number of demand (read+write) MSHR misses
system.l2cache.demand_mshr_misses::.cpu.data            4                       # number of demand (read+write) MSHR misses
system.l2cache.demand_mshr_misses::total            7                       # number of demand (read+write) MSHR misses
system.l2cache.overall_mshr_misses::.cpu.inst            3                       # number of overall MSHR misses
system.l2cache.overall_mshr_misses::.cpu.data            4                       # number of overall MSHR misses
system.l2cache.overall_mshr_misses::total            7                       # number of overall MSHR misses
system.l2cache.demand_mshr_miss_latency::.cpu.inst       138000                       # number of demand (read+write) MSHR miss cycles
system.l2cache.demand_mshr_miss_latency::.cpu.data       264000                       # number of demand (read+write) MSHR miss cycles
system.l2cache.demand_mshr_miss_latency::total       402000                       # number of demand (read+write) MSHR miss cycles
system.l2cache.overall_mshr_miss_latency::.cpu.inst       138000                       # number of overall MSHR miss cycles
system.l2cache.overall_mshr_miss_latency::.cpu.data       264000                       # number of overall MSHR miss cycles
system.l2cache.overall_mshr_miss_latency::total       402000                       # number of overall MSHR miss cycles
system.l2cache.demand_mshr_miss_rate::.cpu.inst            1                       # mshr miss rate for demand accesses
system.l2cache.demand_mshr_miss_rate::.cpu.data            1                       # mshr miss rate for demand accesses
system.l2cache.demand_mshr_miss_rate::total            1                       # mshr miss rate for demand accesses
system.l2cache.overall_mshr_miss_rate::.cpu.inst            1                       # mshr miss rate for overall accesses
system.l2cache.overall_mshr_miss_rate::.cpu.data            1                       # mshr miss rate for overall accesses
system.l2cache.overall_mshr_miss_rate::total            1                       # mshr miss rate for overall accesses
system.l2cache.demand_avg_mshr_miss_latency::.cpu.inst        46000                       # average overall mshr miss latency
system.l2cache.demand_avg_mshr_miss_latency::.cpu.data        66000                       # average overall mshr miss latency
system.l2cache.demand_avg_mshr_miss_latency::total 57428.571429                       # average overall mshr miss latency
system.l2cache.overall_avg_mshr_miss_latency::.cpu.inst        46000                       # average overall mshr miss latency
system.l2cache.overall_avg_mshr_miss_latency::.cpu.data        66000                       # average overall mshr miss latency
system.l2cache.overall_avg_mshr_miss_latency::total 57428.571429                       # average overall mshr miss latency
system.l2cache.replacements                         0                       # number of replacements
system.l2cache.ReadSharedReq_misses::.cpu.inst            3                       # number of ReadSharedReq misses
system.l2cache.ReadSharedReq_misses::.cpu.data            4                       # number of ReadSharedReq misses
system.l2cache.ReadSharedReq_misses::total            7                       # number of ReadSharedReq misses
system.l2cache.ReadSharedReq_miss_latency::.cpu.inst       140000                       # number of ReadSharedReq miss cycles
system.l2cache.ReadSharedReq_miss_latency::.cpu.data       268000                       # number of ReadSharedReq miss cycles
system.l2cache.ReadSharedReq_miss_latency::total       408000                       # number of ReadSharedReq miss cycles
system.l2cache.ReadSharedReq_accesses::.cpu.inst            3                       # number of ReadSharedReq accesses(hits+misses)
system.l2cache.ReadSharedReq_accesses::.cpu.data            4                       # number of ReadSharedReq accesses(hits+misses)
system.l2cache.ReadSharedReq_accesses::total            7                       # number of ReadSharedReq accesses(hits+misses)
system.l2cache.ReadSharedReq_miss_rate::.cpu.inst            1                       # miss rate for ReadSharedReq accesses
system.l2cache.ReadSharedReq_miss_rate::.cpu.data            1                       # miss rate for ReadSharedReq accesses
system.l2cache.ReadSharedReq_miss_rate::total            1                       # miss rate for ReadSharedReq accesses
system.l2cache.ReadSharedReq_avg_miss_latency::.cpu.inst 46666.666667                       # average ReadSharedReq miss latency
system.l2cache.ReadSharedReq_avg_miss_latency::.cpu.data        67000                       # average ReadSharedReq miss latency
system.l2cache.ReadSharedReq_avg_miss_latency::total 58285.714286                       # average ReadSharedReq miss latency
system.l2cache.ReadSharedReq_mshr_misses::.cpu.inst            3                       # number of ReadSharedReq MSHR misses
system.l2cache.ReadSharedReq_mshr_misses::.cpu.data            4                       # number of ReadSharedReq MSHR misses
system.l2cache.ReadSharedReq_mshr_misses::total            7                       # number of ReadSharedReq MSHR misses
system.l2cache.ReadSharedReq_mshr_miss_latency::.cpu.inst       138000                       # number of ReadSharedReq MSHR miss cycles
[...]
system.mem_ctrl.dram.bytes_read::.cpu.data          256                       # Number of bytes read from this memory
system.mem_ctrl.dram.bytes_read::total            384                       # Number of bytes read from this memory
system.mem_ctrl.dram.bytes_inst_read::.cpu.inst          128                       # Number of instructions bytes read from this memory
system.mem_ctrl.dram.bytes_inst_read::total          128                       # Number of instructions bytes read from this memory
system.mem_ctrl.dram.num_reads::.cpu.inst            2                       # Number of read requests responded to by this memory
system.mem_ctrl.dram.num_reads::.cpu.data            4                       # Number of read requests responded to by this memory
system.mem_ctrl.dram.num_reads::total               6                       # Number of read requests responded to by this memory
system.mem_ctrl.dram.bw_read::.cpu.inst       4161519                       # Total read bandwidth from this memory (bytes/s)
system.mem_ctrl.dram.bw_read::.cpu.data       8323038                       # Total read bandwidth from this memory (bytes/s)
system.mem_ctrl.dram.bw_read::total          12484557                       # Total read bandwidth from this memory (bytes/s)
system.mem_ctrl.dram.bw_inst_read::.cpu.inst      4161519                       # Instruction read bandwidth from this memory (bytes/s)
system.mem_ctrl.dram.bw_inst_read::total      4161519                       # Instruction read bandwidth from this memory (bytes/s)
system.mem_ctrl.dram.bw_total::.cpu.inst      4161519                       # Total bandwidth to/from this memory (bytes/s)
system.mem_ctrl.dram.bw_total::.cpu.data      8323038                       # Total bandwidth to/from this memory (bytes/s)
system.mem_ctrl.dram.bw_total::total         12484557                       # Total bandwidth to/from this memory (bytes/s)
system.mem_ctrl.dram.readBursts                     6                       # Number of DRAM read bursts
system.mem_ctrl.dram.writeBursts                    0                       # Number of DRAM write bursts
system.mem_ctrl.dram.perBankRdBursts::0             0                       # Per bank write bursts
system.mem_ctrl.dram.perBankRdBursts::1             0                       # Per bank write bursts
system.mem_ctrl.dram.perBankRdBursts::2             0                       # Per bank write bursts
system.mem_ctrl.dram.perBankRdBursts::3             0                       # Per bank write bursts
system.mem_ctrl.dram.perBankRdBursts::4             0                       # Per bank write bursts
system.mem_ctrl.dram.perBankRdBursts::5             0                       # Per bank write bursts
system.mem_ctrl.dram.perBankRdBursts::6             0                       # Per bank write bursts
system.mem_ctrl.dram.perBankRdBursts::7             2                       # Per bank write bursts
system.mem_ctrl.dram.perBankRdBursts::8             0                       # Per bank write bursts
system.mem_ctrl.dram.perBankRdBursts::9             0                       # Per bank write bursts
system.mem_ctrl.dram.perBankRdBursts::10            0                       # Per bank write bursts
system.mem_ctrl.dram.perBankRdBursts::11            0                       # Per bank write bursts
system.mem_ctrl.dram.perBankRdBursts::12            0                       # Per bank write bursts
system.mem_ctrl.dram.perBankRdBursts::13            0                       # Per bank write bursts
system.mem_ctrl.dram.perBankRdBursts::14            0                       # Per bank write bursts
system.mem_ctrl.dram.perBankRdBursts::15            0                       # Per bank write bursts
system.mem_ctrl.dram.perBankRdBursts::16            0                       # Per bank write bursts
system.mem_ctrl.dram.perBankRdBursts::17            0                       # Per bank write bursts
system.mem_ctrl.dram.perBankRdBursts::18            0                       # Per bank write bursts
system.mem_ctrl.dram.perBankRdBursts::19            0                       # Per bank write bursts
system.mem_ctrl.dram.perBankRdBursts::20            0                       # Per bank write bursts
system.mem_ctrl.dram.perBankRdBursts::21            0                       # Per bank write bursts
system.mem_ctrl.dram.perBankRdBursts::22            0                       # Per bank write bursts
system.mem_ctrl.dram.perBankRdBursts::23            0                       # Per bank write bursts
system.mem_ctrl.dram.perBankRdBursts::24            0                       # Per bank write bursts
system.mem_ctrl.dram.perBankRdBursts::25            0                       # Per bank write bursts
system.mem_ctrl.dram.perBankRdBursts::26            0                       # Per bank write bursts
system.mem_ctrl.dram.perBankRdBursts::27            0                       # Per bank write bursts
system.mem_ctrl.dram.perBankRdBursts::28            0                       # Per bank write bursts
system.mem_ctrl.dram.perBankRdBursts::29            0                       # Per bank write bursts
system.mem_ctrl.dram.perBankRdBursts::30            0                       # Per bank write bursts
system.mem_ctrl.dram.perBankRdBursts::31            4                       # Per bank write bursts
system.mem_ctrl.dram.perBankWrBursts::0             0                       # Per bank write bursts
system.mem_ctrl.dram.perBankWrBursts::1             0                       # Per bank write bursts
system.mem_ctrl.dram.perBankWrBursts::2             0                       # Per bank write bursts
system.mem_ctrl.dram.perBankWrBursts::3             0                       # Per bank write bursts
system.mem_ctrl.dram.perBankWrBursts::4             0                       # Per bank write bursts
system.mem_ctrl.dram.perBankWrBursts::5             0                       # Per bank write bursts
system.mem_ctrl.dram.perBankWrBursts::6             0                       # Per bank write bursts
system.mem_ctrl.dram.perBankWrBursts::7             0                       # Per bank write bursts
system.mem_ctrl.dram.perBankWrBursts::8             0                       # Per bank write bursts
system.mem_ctrl.dram.perBankWrBursts::9             0                       # Per bank write bursts
system.mem_ctrl.dram.perBankWrBursts::10            0                       # Per bank write bursts
system.mem_ctrl.dram.perBankWrBursts::11            0                       # Per bank write bursts
system.mem_ctrl.dram.perBankWrBursts::12            0                       # Per bank write bursts
system.mem_ctrl.dram.perBankWrBursts::13            0                       # Per bank write bursts
system.mem_ctrl.dram.perBankWrBursts::14            0                       # Per bank write bursts
system.mem_ctrl.dram.perBankWrBursts::15            0                       # Per bank write bursts
system.mem_ctrl.dram.perBankWrBursts::16            0                       # Per bank write bursts
system.mem_ctrl.dram.perBankWrBursts::17            0                       # Per bank write bursts
system.mem_ctrl.dram.perBankWrBursts::18            0                       # Per bank write bursts
system.mem_ctrl.dram.perBankWrBursts::19            0                       # Per bank write bursts
system.mem_ctrl.dram.perBankWrBursts::20            0                       # Per bank write bursts
system.mem_ctrl.dram.perBankWrBursts::21            0                       # Per bank write bursts
system.mem_ctrl.dram.perBankWrBursts::22            0                       # Per bank write bursts
system.mem_ctrl.dram.perBankWrBursts::23            0                       # Per bank write bursts
system.mem_ctrl.dram.perBankWrBursts::24            0                       # Per bank write bursts
system.mem_ctrl.dram.perBankWrBursts::25            0                       # Per bank write bursts
system.mem_ctrl.dram.perBankWrBursts::26            0                       # Per bank write bursts
system.mem_ctrl.dram.perBankWrBursts::27            0                       # Per bank write bursts
system.mem_ctrl.dram.perBankWrBursts::28            0                       # Per bank write bursts
system.mem_ctrl.dram.perBankWrBursts::29            0                       # Per bank write bursts
system.mem_ctrl.dram.perBankWrBursts::30            0                       # Per bank write bursts
system.mem_ctrl.dram.perBankWrBursts::31            0                       # Per bank write bursts
system.mem_ctrl.dram.totQLat                    48638                       # Total ticks spent queuing
system.mem_ctrl.dram.totBusLat                  19992                       # Total ticks spent in databus transfers
system.mem_ctrl.dram.totMemAccLat              153590                       # Total ticks spent from burst creation until serviced by the DRAM
system.mem_ctrl.dram.avgQLat                  8106.33                       # Average queueing delay per DRAM burst
system.mem_ctrl.dram.avgBusLat                3332.00                       # Average bus latency per DRAM burst
system.mem_ctrl.dram.avgMemAccLat            25598.33                       # Average memory access latency per DRAM burst
system.mem_ctrl.dram.readRowHits                    5                       # Number of row buffer hits during reads
system.mem_ctrl.dram.writeRowHits                   0                       # Number of row buffer hits during writes
system.mem_ctrl.dram.readRowHitRate             83.33                       # Row buffer hit rate for reads
system.mem_ctrl.dram.writeRowHitRate              nan                       # Row buffer hit rate for writes
system.mem_ctrl.dram.bytesPerActivate::samples           19                       # Bytes accessed per row activation
system.mem_ctrl.dram.bytesPerActivate::mean   175.157895                       # Bytes accessed per row activation
system.mem_ctrl.dram.bytesPerActivate::gmean   133.414732                       # Bytes accessed per row activation
system.mem_ctrl.dram.bytesPerActivate::stdev   136.336701                       # Bytes accessed per row activation
system.mem_ctrl.dram.bytesPerActivate::64-127            8     42.11%     42.11% # Bytes accessed per row activation
system.mem_ctrl.dram.bytesPerActivate::128-191            4     21.05%     63.16% # Bytes accessed per row activation
system.mem_ctrl.dram.bytesPerActivate::192-255            1      5.26%     68.42% # Bytes accessed per row activation
system.mem_ctrl.dram.bytesPerActivate::256-319            1      5.26%     73.68% # Bytes accessed per row activation
system.mem_ctrl.dram.bytesPerActivate::320-383            3     15.79%     89.47% # Bytes accessed per row activation
system.mem_ctrl.dram.bytesPerActivate::384-447            1      5.26%     94.74% # Bytes accessed per row activation
system.mem_ctrl.dram.bytesPerActivate::512-575            1      5.26%    100.00% # Bytes accessed per row activation
system.mem_ctrl.dram.bytesPerActivate::total           19                       # Bytes accessed per row activation
system.mem_ctrl.dram.bytesRead                    384                       # Total number of bytes read from DRAM
system.mem_ctrl.dram.bytesWritten                   0                       # Total number of bytes written to DRAM
system.mem_ctrl.dram.avgRdBW                12.484557                       # Average DRAM read bandwidth in MiBytes/s
system.mem_ctrl.dram.avgWrBW                        0                       # Average DRAM write bandwidth in MiBytes/s
system.mem_ctrl.dram.peakBW                  19207.00                       # Theoretical peak bandwidth in MiByte/s
system.mem_ctrl.dram.busUtil                     0.07                       # Data bus utilization in percentage
system.mem_ctrl.dram.busUtilRead                 0.07                       # Data bus utilization in percentage for reads
system.mem_ctrl.dram.busUtilWrite                0.00                       # Data bus utilization in percentage for writes
system.mem_ctrl.dram.pageHitRate                83.33                       # Row buffer hit rate, read and write combined
system.mem_ctrl.dram.power_state.pwrStateResidencyTicks::UNDEFINED     65856000                       # Cumulative time (in ticks) in various power states
system.mem_ctrl.dram.rank0.actEnergy     71731.296000                       # Energy for activate commands per rank (pJ)
system.mem_ctrl.dram.rank0.preEnergy     95365.838400                       # Energy for precharge commands per rank (pJ)
system.mem_ctrl.dram.rank0.readEnergy    273410.592000                       # Energy for read commands per rank (pJ)
system.mem_ctrl.dram.rank0.writeEnergy              0                       # Energy for write commands per rank (pJ)
system.mem_ctrl.dram.rank0.refreshEnergy 5541510.508800                       # Energy for refresh commands per rank (pJ)
system.mem_ctrl.dram.rank0.actBackEnergy 7448719.320000                       # Energy for active background per rank (pJ)
system.mem_ctrl.dram.rank0.preBackEnergy 16699013.721600                       # Energy for precharge background per rank (pJ)
system.mem_ctrl.dram.rank0.actPowerDownEnergy            0                       # Energy for active power-down per rank (pJ)
system.mem_ctrl.dram.rank0.prePowerDownEnergy            0                       # Energy for precharge power-down per rank (pJ)
system.mem_ctrl.dram.rank0.selfRefreshEnergy            0                       # Energy for self refresh per rank (pJ)
system.mem_ctrl.dram.rank0.totalEnergy   30129751.276800                       # Total energy per rank (pJ)
system.mem_ctrl.dram.rank0.averagePower    979.574461                       # Core power per rank (mW)
system.mem_ctrl.dram.rank0.totalIdleTime            0                       # Total Idle time Per DRAM Rank
system.mem_ctrl.dram.rank0.pwrStateTime::IDLE     25512640                       # Time in different power states
system.mem_ctrl.dram.rank0.pwrStateTime::REF      1400000                       # Time in different power states
system.mem_ctrl.dram.rank0.pwrStateTime::SREF            0                       # Time in different power states
system.mem_ctrl.dram.rank0.pwrStateTime::PRE_PDN            0                       # Time in different power states
system.mem_ctrl.dram.rank0.pwrStateTime::ACT      7435840                       # Time in different power states
system.mem_ctrl.dram.rank0.pwrStateTime::ACT_PDN            0                       # Time in different power states
system.mem_ctrl.dram.rank1.actEnergy     24950.016000                       # Energy for activate commands per rank (pJ)
system.mem_ctrl.dram.rank1.preEnergy     33170.726400                       # Energy for precharge commands per rank (pJ)
system.mem_ctrl.dram.rank1.readEnergy    71507.385600                       # Energy for read commands per rank (pJ)
system.mem_ctrl.dram.rank1.writeEnergy              0                       # Energy for write commands per rank (pJ)
system.mem_ctrl.dram.rank1.refreshEnergy 5541510.508800                       # Energy for refresh commands per rank (pJ)
system.mem_ctrl.dram.rank1.actBackEnergy 7448719.320000                       # Energy for active background per rank (pJ)
system.mem_ctrl.dram.rank1.preBackEnergy 16699013.721600                       # Energy for precharge background per rank (pJ)
system.mem_ctrl.dram.rank1.actPowerDownEnergy            0                       # Energy for active power-down per rank (pJ)
system.mem_ctrl.dram.rank1.prePowerDownEnergy            0                       # Energy for precharge power-down per rank (pJ)
system.mem_ctrl.dram.rank1.selfRefreshEnergy            0                       # Energy for self refresh per rank (pJ)
system.mem_ctrl.dram.rank1.totalEnergy   29818871.678400                       # Total energy per rank (pJ)
system.mem_ctrl.dram.rank1.averagePower    969.467185                       # Core power per rank (mW)
system.mem_ctrl.dram.rank1.totalIdleTime            0                       # Total Idle time Per DRAM Rank
system.mem_ctrl.dram.rank1.pwrStateTime::IDLE     25512640                       # Time in different power states
system.mem_ctrl.dram.rank1.pwrStateTime::REF      1400000                       # Time in different power states
system.mem_ctrl.dram.rank1.pwrStateTime::SREF            0                       # Time in different power states
system.mem_ctrl.dram.rank1.pwrStateTime::PRE_PDN            0                       # Time in different power states
system.mem_ctrl.dram.rank1.pwrStateTime::ACT      7435840                       # Time in different power states
system.mem_ctrl.dram.rank1.pwrStateTime::ACT_PDN            0                       # Time in different power states
system.mem_ctrl.power_state.pwrStateResidencyTicks::UNDEFINED     65856000                       # Cumulative time (in ticks) in various power states
system.membus.trans_dist::ReadResp                  6                       # Transaction distribution
system.membus.trans_dist::ReadSharedReq             6                       # Transaction distribution
system.membus.pkt_count_system.l2cache.mem_side_port::system.mem_ctrl.port           12                       # Packet count per connected requestor and responder (bytes)
system.membus.pkt_count_system.l2cache.mem_side_port::total           12                       # Packet count per connected requestor and responder (bytes)
system.membus.pkt_count::total                     12                       # Packet count per connected requestor and responder (bytes)
system.membus.pkt_size_system.l2cache.mem_side_port::system.mem_ctrl.port          384                       # Cumulative packet size per connected requestor and responder (bytes)
system.membus.pkt_size_system.l2cache.mem_side_port::total          384                       # Cumulative packet size per connected requestor and responder (bytes)
system.membus.pkt_size::total                     384                       # Cumulative packet size per connected requestor and responder (bytes)
system.membus.snoops                                0                       # Total snoops (count)
system.membus.snoopTraffic                          0                       # Total snoop traffic (bytes)
system.membus.snoop_fanout::samples                 6                       # Request fanout histogram
system.membus.snoop_fanout::mean                    0                       # Request fanout histogram
system.membus.snoop_fanout::stdev                   0                       # Request fanout histogram
system.membus.snoop_fanout::underflows              0      0.00%      0.00% # Request fanout histogram
system.membus.snoop_fanout::0                       6    100.00%    100.00% # Request fanout histogram
system.membus.snoop_fanout::1                       0      0.00%    100.00% # Request fanout histogram
system.membus.snoop_fanout::overflows               0      0.00%    100.00% # Request fanout histogram
system.membus.snoop_fanout::min_value               0                       # Request fanout histogram
system.membus.snoop_fanout::max_value               0                       # Request fanout histogram
system.membus.snoop_fanout::total                   6                       # Request fanout histogram
system.membus.power_state.pwrStateResidencyTicks::UNDEFINED     65856000                       # Cumulative time (in ticks) in various power states
system.membus.reqLayer0.occupancy                6000                       # Layer occupancy (ticks)
system.membus.reqLayer0.utilization               0.0                       # Layer utilization (%)
system.membus.respLayer0.occupancy              14410                       # Layer occupancy (ticks)
system.membus.respLayer0.utilization              0.0                       # Layer utilization (%)

---------- End Simulation Statistics   ----------
