
---------- Begin Simulation Statistics ----------
final_tick                                51563722500                       # Number of ticks from beginning of simulation (restored from checkpoints and never reset)
host_inst_rate                                  65881                       # Simulator instruction rate (inst/s)
host_mem_usage                                 717476                       # Number of bytes of host memory used
host_op_rate                                   109375                       # Simulator op (including micro ops) rate (op/s)
host_seconds                                  1517.89                       # Real time elapsed on the host
host_tick_rate                               33970730                       # Simulator tick rate (ticks/s)
sim_freq                                 1000000000000                       # Frequency of simulated ticks
sim_insts                                   100000001                       # Number of instructions simulated
sim_ops                                     166019455                       # Number of ops (including micro ops) simulated
sim_seconds                                  0.051564                       # Number of seconds simulated
sim_ticks                                 51563722500                       # Number of ticks simulated
system.cpu.cc_regfile_reads                  33788590                       # number of cc regfile reads
system.cpu.cc_regfile_writes                 73520466                       # number of cc regfile writes
system.cpu.committedInsts                   100000001                       # Number of Instructions Simulated
system.cpu.committedOps                     166019455                       # Number of Ops (including micro ops) Simulated
system.cpu.cpi                               1.031274                       # CPI: Cycles Per Instruction
system.cpu.cpi_total                         1.031274                       # CPI: Total CPI of All Threads
system.cpu.fp_regfile_reads                  47836226                       # number of floating regfile reads
system.cpu.fp_regfile_writes                 29608288                       # number of floating regfile writes
system.cpu.idleCycles                          196062                       # Total number of cycles that the CPU has spent unscheduled due to idling
system.cpu.iew.branchMispredicts                17117                       # Number of branch mispredicts detected at execute
system.cpu.iew.exec_branches                  5906650                       # Number of branches executed
system.cpu.iew.exec_nop                             0                       # number of nop insts executed
system.cpu.iew.exec_rate                     1.888801                       # Inst execution rate
system.cpu.iew.exec_refs                     54888191                       # number of memory reference insts executed
system.cpu.iew.exec_stores                   16873166                       # Number of stores executed
system.cpu.iew.exec_swp                             0                       # number of swp insts executed
system.cpu.iew.iewBlockCycles                18886845                       # Number of cycles IEW is blocking
system.cpu.iew.iewDispLoadInsts              38032186                       # Number of dispatched load instructions
system.cpu.iew.iewDispNonSpecInsts                259                       # Number of dispatched non-speculative instructions
system.cpu.iew.iewDispSquashedInsts              1160                       # Number of squashed instructions skipped by dispatch
system.cpu.iew.iewDispStoreInsts             17505060                       # Number of dispatched store instructions
system.cpu.iew.iewDispatchedInsts           195877186                       # Number of instructions dispatched to IQ
system.cpu.iew.iewExecLoadInsts              38015025                       # Number of load instructions executed
system.cpu.iew.iewExecSquashedInsts            123598                       # Number of squashed instructions skipped in execute
system.cpu.iew.iewExecutedInsts             194787176                       # Number of executed instructions
system.cpu.iew.iewIQFullEvents                  54505                       # Number of times the IQ has become full, causing a stall
system.cpu.iew.iewIdleCycles                        0                       # Number of cycles IEW is idle
system.cpu.iew.iewLSQFullEvents               3125814                       # Number of times the LSQ has become full, causing a stall
system.cpu.iew.iewSquashCycles                 294610                       # Number of cycles IEW is squashing
system.cpu.iew.iewUnblockCycles               3155080                       # Number of cycles IEW is unblocking
system.cpu.iew.memOrderViolationEvents            573                       # Number of memory order violations
system.cpu.iew.predictedNotTakenIncorrect        10168                       # Number of branches that were predicted not taken incorrectly
system.cpu.iew.predictedTakenIncorrect           6949                       # Number of branches that were predicted taken incorrectly
system.cpu.iew.wb_consumers                 257296344                       # num instructions consuming a value
system.cpu.iew.wb_count                     191324267                       # cumulative count of insts written-back
system.cpu.iew.wb_fanout                     0.570790                       # average fanout of values written-back
system.cpu.iew.wb_producers                 146862258                       # num instructions producing a value
system.cpu.iew.wb_rate                       1.855222                       # insts written-back per cycle
system.cpu.iew.wb_sent                      194583228                       # cumulative count of insts sent to commit
system.cpu.int_regfile_reads                321056840                       # number of integer regfile reads
system.cpu.int_regfile_writes               144545581                       # number of integer regfile writes
system.cpu.ipc                               0.969674                       # IPC: Instructions Per Cycle
system.cpu.ipc_total                         0.969674                       # IPC: Total IPC of All Threads
system.cpu.iq.FU_type_0::No_OpClass           4176126      2.14%      2.14% # Type of FU issued
system.cpu.iq.FU_type_0::IntAlu             111671619     57.29%     59.44% # Type of FU issued
system.cpu.iq.FU_type_0::IntMult              6313259      3.24%     62.68% # Type of FU issued
system.cpu.iq.FU_type_0::IntDiv                100739      0.05%     62.73% # Type of FU issued
system.cpu.iq.FU_type_0::FloatAdd             1448518      0.74%     63.47% # Type of FU issued
system.cpu.iq.FU_type_0::FloatCmp                   0      0.00%     63.47% # Type of FU issued
system.cpu.iq.FU_type_0::FloatCvt                  32      0.00%     63.47% # Type of FU issued
system.cpu.iq.FU_type_0::FloatMult                  0      0.00%     63.47% # Type of FU issued
system.cpu.iq.FU_type_0::FloatMultAcc               0      0.00%     63.47% # Type of FU issued
system.cpu.iq.FU_type_0::FloatDiv                   0      0.00%     63.47% # Type of FU issued
system.cpu.iq.FU_type_0::FloatMisc                  0      0.00%     63.47% # Type of FU issued
system.cpu.iq.FU_type_0::FloatSqrt                  0      0.00%     63.47% # Type of FU issued
system.cpu.iq.FU_type_0::SimdAdd                 3129      0.00%     63.47% # Type of FU issued
system.cpu.iq.FU_type_0::SimdAddAcc                 0      0.00%     63.47% # Type of FU issued
system.cpu.iq.FU_type_0::SimdAlu              2862092      1.47%     64.94% # Type of FU issued
system.cpu.iq.FU_type_0::SimdCmp                   72      0.00%     64.94% # Type of FU issued
system.cpu.iq.FU_type_0::SimdCvt                 7699      0.00%     64.94% # Type of FU issued
system.cpu.iq.FU_type_0::SimdMisc             2869705      1.47%     66.42% # Type of FU issued
system.cpu.iq.FU_type_0::SimdMult                 248      0.00%     66.42% # Type of FU issued
system.cpu.iq.FU_type_0::SimdMultAcc                0      0.00%     66.42% # Type of FU issued
system.cpu.iq.FU_type_0::SimdShift               2063      0.00%     66.42% # Type of FU issued
system.cpu.iq.FU_type_0::SimdShiftAcc               0      0.00%     66.42% # Type of FU issued
system.cpu.iq.FU_type_0::SimdDiv                    0      0.00%     66.42% # Type of FU issued
system.cpu.iq.FU_type_0::SimdSqrt                   0      0.00%     66.42% # Type of FU issued
system.cpu.iq.FU_type_0::SimdFloatAdd         4781106      2.45%     68.87% # Type of FU issued
system.cpu.iq.FU_type_0::SimdFloatAlu               0      0.00%     68.87% # Type of FU issued
system.cpu.iq.FU_type_0::SimdFloatCmp               0      0.00%     68.87% # Type of FU issued
system.cpu.iq.FU_type_0::SimdFloatCvt         2386456      1.22%     70.10% # Type of FU issued
system.cpu.iq.FU_type_0::SimdFloatDiv              16      0.00%     70.10% # Type of FU issued
system.cpu.iq.FU_type_0::SimdFloatMisc              0      0.00%     70.10% # Type of FU issued
system.cpu.iq.FU_type_0::SimdFloatMult        3347073      1.72%     71.81% # Type of FU issued
system.cpu.iq.FU_type_0::SimdFloatMultAcc            0      0.00%     71.81% # Type of FU issued
system.cpu.iq.FU_type_0::SimdFloatSqrt              0      0.00%     71.81% # Type of FU issued
system.cpu.iq.FU_type_0::SimdReduceAdd              0      0.00%     71.81% # Type of FU issued
system.cpu.iq.FU_type_0::SimdReduceAlu              0      0.00%     71.81% # Type of FU issued
system.cpu.iq.FU_type_0::SimdReduceCmp              0      0.00%     71.81% # Type of FU issued
system.cpu.iq.FU_type_0::SimdFloatReduceAdd            0      0.00%     71.81% # Type of FU issued
system.cpu.iq.FU_type_0::SimdFloatReduceCmp            0      0.00%     71.81% # Type of FU issued
system.cpu.iq.FU_type_0::SimdAes                    0      0.00%     71.81% # Type of FU issued
system.cpu.iq.FU_type_0::SimdAesMix                 0      0.00%     71.81% # Type of FU issued
system.cpu.iq.FU_type_0::SimdSha1Hash               0      0.00%     71.81% # Type of FU issued
system.cpu.iq.FU_type_0::SimdSha1Hash2              0      0.00%     71.81% # Type of FU issued
system.cpu.iq.FU_type_0::SimdSha256Hash             0      0.00%     71.81% # Type of FU issued
system.cpu.iq.FU_type_0::SimdSha256Hash2            0      0.00%     71.81% # Type of FU issued
system.cpu.iq.FU_type_0::SimdShaSigma2              0      0.00%     71.81% # Type of FU issued
system.cpu.iq.FU_type_0::SimdShaSigma3              0      0.00%     71.81% # Type of FU issued
system.cpu.iq.FU_type_0::SimdPredAlu                0      0.00%     71.81% # Type of FU issued
system.cpu.iq.FU_type_0::MemRead             26423510     13.56%     85.37% # Type of FU issued
system.cpu.iq.FU_type_0::MemWrite            10639007      5.46%     90.83% # Type of FU issued
system.cpu.iq.FU_type_0::FloatMemRead        11640440      5.97%     96.80% # Type of FU issued
system.cpu.iq.FU_type_0::FloatMemWrite        6237868      3.20%    100.00% # Type of FU issued
system.cpu.iq.FU_type_0::IprAccess                  0      0.00%    100.00% # Type of FU issued
system.cpu.iq.FU_type_0::InstPrefetch               0      0.00%    100.00% # Type of FU issued
system.cpu.iq.FU_type_0::total              194910777                       # Type of FU issued
system.cpu.iq.fp_alu_accesses                39371414                       # Number of floating point alu accesses
system.cpu.iq.fp_inst_queue_reads            76879495                       # Number of floating instruction queue reads
system.cpu.iq.fp_inst_queue_wakeup_accesses     37137108                       # Number of floating instruction queue wakeup accesses
system.cpu.iq.fp_inst_queue_writes           49834466                       # Number of floating instruction queue writes
system.cpu.iq.fu_busy_cnt                     3663396                       # FU busy when requested
system.cpu.iq.fu_busy_rate                   0.018795                       # FU busy rate (busy events/executed inst)
system.cpu.iq.fu_full::No_OpClass                   0      0.00%      0.00% # attempts to use FU when none available
system.cpu.iq.fu_full::IntAlu                  584104     15.94%     15.94% # attempts to use FU when none available
system.cpu.iq.fu_full::IntMult                      0      0.00%     15.94% # attempts to use FU when none available
system.cpu.iq.fu_full::IntDiv                       0      0.00%     15.94% # attempts to use FU when none available
system.cpu.iq.fu_full::FloatAdd                     0      0.00%     15.94% # attempts to use FU when none available
system.cpu.iq.fu_full::FloatCmp                     0      0.00%     15.94% # attempts to use FU when none available
system.cpu.iq.fu_full::FloatCvt                     0      0.00%     15.94% # attempts to use FU when none available
system.cpu.iq.fu_full::FloatMult                    0      0.00%     15.94% # attempts to use FU when none available
system.cpu.iq.fu_full::FloatMultAcc                 0      0.00%     15.94% # attempts to use FU when none available
system.cpu.iq.fu_full::FloatDiv                     0      0.00%     15.94% # attempts to use FU when none available
system.cpu.iq.fu_full::FloatMisc                    0      0.00%     15.94% # attempts to use FU when none available
system.cpu.iq.fu_full::FloatSqrt                    0      0.00%     15.94% # attempts to use FU when none available
system.cpu.iq.fu_full::SimdAdd                      0      0.00%     15.94% # attempts to use FU when none available
system.cpu.iq.fu_full::SimdAddAcc                   0      0.00%     15.94% # attempts to use FU when none available
system.cpu.iq.fu_full::SimdAlu                     71      0.00%     15.95% # attempts to use FU when none available
system.cpu.iq.fu_full::SimdCmp                      0      0.00%     15.95% # attempts to use FU when none available
system.cpu.iq.fu_full::SimdCvt                     30      0.00%     15.95% # attempts to use FU when none available
system.cpu.iq.fu_full::SimdMisc                    22      0.00%     15.95% # attempts to use FU when none available
system.cpu.iq.fu_full::SimdMult                     0      0.00%     15.95% # attempts to use FU when none available
system.cpu.iq.fu_full::SimdMultAcc                  0      0.00%     15.95% # attempts to use FU when none available
system.cpu.iq.fu_full::SimdShift                   56      0.00%     15.95% # attempts to use FU when none available
system.cpu.iq.fu_full::SimdShiftAcc                 0      0.00%     15.95% # attempts to use FU when none available
system.cpu.iq.fu_full::SimdDiv                      0      0.00%     15.95% # attempts to use FU when none available
system.cpu.iq.fu_full::SimdSqrt                     0      0.00%     15.95% # attempts to use FU when none available
system.cpu.iq.fu_full::SimdFloatAdd                22      0.00%     15.95% # attempts to use FU when none available
system.cpu.iq.fu_full::SimdFloatAlu                 0      0.00%     15.95% # attempts to use FU when none available
system.cpu.iq.fu_full::SimdFloatCmp                 0      0.00%     15.95% # attempts to use FU when none available
system.cpu.iq.fu_full::SimdFloatCvt                 0      0.00%     15.95% # attempts to use FU when none available
system.cpu.iq.fu_full::SimdFloatDiv                 0      0.00%     15.95% # attempts to use FU when none available
system.cpu.iq.fu_full::SimdFloatMisc                0      0.00%     15.95% # attempts to use FU when none available
system.cpu.iq.fu_full::SimdFloatMult                5      0.00%     15.95% # attempts to use FU when none available
system.cpu.iq.fu_full::SimdFloatMultAcc             0      0.00%     15.95% # attempts to use FU when none available
system.cpu.iq.fu_full::SimdFloatSqrt                0      0.00%     15.95% # attempts to use FU when none available
system.cpu.iq.fu_full::SimdReduceAdd                0      0.00%     15.95% # attempts to use FU when none available
system.cpu.iq.fu_full::SimdReduceAlu                0      0.00%     15.95% # attempts to use FU when none available
system.cpu.iq.fu_full::SimdReduceCmp                0      0.00%     15.95% # attempts to use FU when none available
system.cpu.iq.fu_full::SimdFloatReduceAdd            0      0.00%     15.95% # attempts to use FU when none available
system.cpu.iq.fu_full::SimdFloatReduceCmp            0      0.00%     15.95% # attempts to use FU when none available
system.cpu.iq.fu_full::SimdAes                      0      0.00%     15.95% # attempts to use FU when none available
system.cpu.iq.fu_full::SimdAesMix                   0      0.00%     15.95% # attempts to use FU when none available
system.cpu.iq.fu_full::SimdSha1Hash                 0      0.00%     15.95% # attempts to use FU when none available
system.cpu.iq.fu_full::SimdSha1Hash2                0      0.00%     15.95% # attempts to use FU when none available
system.cpu.iq.fu_full::SimdSha256Hash               0      0.00%     15.95% # attempts to use FU when none available
system.cpu.iq.fu_full::SimdSha256Hash2              0      0.00%     15.95% # attempts to use FU when none available
system.cpu.iq.fu_full::SimdShaSigma2                0      0.00%     15.95% # attempts to use FU when none available
system.cpu.iq.fu_full::SimdShaSigma3                0      0.00%     15.95% # attempts to use FU when none available
system.cpu.iq.fu_full::SimdPredAlu                  0      0.00%     15.95% # attempts to use FU when none available
system.cpu.iq.fu_full::MemRead                 409797     11.19%     27.14% # attempts to use FU when none available
system.cpu.iq.fu_full::MemWrite                789180     21.54%     48.68% # attempts to use FU when none available
system.cpu.iq.fu_full::FloatMemRead           1632655     44.57%     93.25% # attempts to use FU when none available
system.cpu.iq.fu_full::FloatMemWrite           247454      6.75%    100.00% # attempts to use FU when none available
system.cpu.iq.fu_full::IprAccess                    0      0.00%    100.00% # attempts to use FU when none available
system.cpu.iq.fu_full::InstPrefetch                 0      0.00%    100.00% # attempts to use FU when none available
system.cpu.iq.int_alu_accesses              155026633                       # Number of integer alu accesses
system.cpu.iq.int_inst_queue_reads          419555868                       # Number of integer instruction queue reads
system.cpu.iq.int_inst_queue_wakeup_accesses    154187159                       # Number of integer instruction queue wakeup accesses
system.cpu.iq.int_inst_queue_writes         175900939                       # Number of integer instruction queue writes
system.cpu.iq.iqInstsAdded                  195815129                       # Number of instructions added to the IQ (excludes non-spec)
system.cpu.iq.iqInstsIssued                 194910777                       # Number of instructions issued
system.cpu.iq.iqNonSpecInstsAdded               62057                       # Number of non-speculative instructions added to the IQ
system.cpu.iq.iqSquashedInstsExamined        29857653                       # Number of squashed instructions iterated over during squash; mainly for profiling
system.cpu.iq.iqSquashedInstsIssued             19032                       # Number of squashed instructions issued
system.cpu.iq.iqSquashedNonSpecRemoved          56668                       # Number of squashed non-spec instructions that were removed
system.cpu.iq.iqSquashedOperandsExamined      5173974                       # Number of squashed operands that are examined and possibly removed from graph
system.cpu.iq.issued_per_cycle::samples     102931384                       # Number of insts issued each cycle
system.cpu.iq.issued_per_cycle::mean         1.893599                       # Number of insts issued each cycle
system.cpu.iq.issued_per_cycle::stdev        2.152335                       # Number of insts issued each cycle
system.cpu.iq.issued_per_cycle::underflows            0      0.00%      0.00% # Number of insts issued each cycle
system.cpu.iq.issued_per_cycle::0            44446073     43.18%     43.18% # Number of insts issued each cycle
system.cpu.iq.issued_per_cycle::1             9881841      9.60%     52.78% # Number of insts issued each cycle
system.cpu.iq.issued_per_cycle::2            13089477     12.72%     65.50% # Number of insts issued each cycle
system.cpu.iq.issued_per_cycle::3            11236142     10.92%     76.41% # Number of insts issued each cycle
system.cpu.iq.issued_per_cycle::4             9933241      9.65%     86.06% # Number of insts issued each cycle
system.cpu.iq.issued_per_cycle::5             6350371      6.17%     92.23% # Number of insts issued each cycle
system.cpu.iq.issued_per_cycle::6             3843669      3.73%     95.97% # Number of insts issued each cycle
system.cpu.iq.issued_per_cycle::7             2609837      2.54%     98.50% # Number of insts issued each cycle
system.cpu.iq.issued_per_cycle::8             1540733      1.50%    100.00% # Number of insts issued each cycle
system.cpu.iq.issued_per_cycle::overflows            0      0.00%    100.00% # Number of insts issued each cycle
system.cpu.iq.issued_per_cycle::min_value            0                       # Number of insts issued each cycle
system.cpu.iq.issued_per_cycle::max_value            8                       # Number of insts issued each cycle
system.cpu.iq.issued_per_cycle::total       102931384                       # Number of insts issued each cycle
system.cpu.iq.rate                           1.889999                       # Inst issue rate
system.cpu.iq.vec_alu_accesses                      0                       # Number of vector alu accesses
system.cpu.iq.vec_inst_queue_reads                  0                       # Number of vector instruction queue reads
system.cpu.iq.vec_inst_queue_wakeup_accesses            0                       # Number of vector instruction queue wakeup accesses
system.cpu.iq.vec_inst_queue_writes                 0                       # Number of vector instruction queue writes
system.cpu.memDep0.conflictingLoads           2267837                       # Number of conflicting loads.
system.cpu.memDep0.conflictingStores          1707701                       # Number of conflicting stores.
system.cpu.memDep0.insertedLoads             38032186                       # Number of loads inserted to the mem dependence unit.
system.cpu.memDep0.insertedStores            17505060                       # Number of stores inserted to the mem dependence unit.
system.cpu.misc_regfile_reads                70464468                       # number of misc regfile reads
system.cpu.misc_regfile_writes                     18                       # number of misc regfile writes
system.cpu.numCycles                        103127446                       # number of cpu cycles simulated
system.cpu.numWorkItemsCompleted                    0                       # number of work items this cpu completed
system.cpu.numWorkItemsStarted                      0                       # number of work items this cpu started
system.cpu.timesIdled                            2177                       # Number of times that the entire CPU went into an idle state and unscheduled itself
system.cpu.workload.numSyscalls                   121                       # Number of system calls
system.membus.snoop_filter.hit_multi_requests            0                       # Number of requests hitting in the snoop filter with multiple (>1) holders of the requested data.
system.membus.snoop_filter.hit_multi_snoops            0                       # Number of snoops hitting in the snoop filter with multiple (>1) holders of the requested data.
system.membus.snoop_filter.hit_single_requests       379006                       # Number of requests hitting in the snoop filter with a single holder of the requested data.
system.membus.snoop_filter.hit_single_snoops            0                       # Number of snoops hitting in the snoop filter with a single holder of the requested data.
system.membus.snoop_filter.tot_requests        766720                       # Total number of requests made to the snoop filter.
system.membus.snoop_filter.tot_snoops               0                       # Total number of snoops made to the snoop filter.
system.tol2bus.snoop_filter.hit_multi_requests            9                       # Number of requests hitting in the snoop filter with multiple (>1) holders of the requested data.
system.tol2bus.snoop_filter.hit_multi_snoops            0                       # Number of snoops hitting in the snoop filter with multiple (>1) holders of the requested data.
system.tol2bus.snoop_filter.hit_single_requests       425191                       # Number of requests hitting in the snoop filter with a single holder of the requested data.
system.tol2bus.snoop_filter.hit_single_snoops         1237                       # Number of snoops hitting in the snoop filter with a single holder of the requested data.
system.tol2bus.snoop_filter.tot_requests       851409                       # Total number of requests made to the snoop filter.
system.tol2bus.snoop_filter.tot_snoops           1237                       # Total number of snoops made to the snoop filter.
system.clk_domain.clock                           250                       # Clock period in ticks
system.cpu.branchPred.lookups                 6476792                       # Number of BP lookups
system.cpu.branchPred.condPredicted           4661877                       # Number of conditional branches predicted
system.cpu.branchPred.condIncorrect             15454                       # Number of conditional branches incorrect
system.cpu.branchPred.BTBLookups              3408190                       # Number of BTB lookups
system.cpu.branchPred.BTBHits                 3398668                       # Number of BTB hits
system.cpu.branchPred.BTBHitPct             99.720614                       # BTB Hit Percentage
system.cpu.branchPred.RASUsed                  612093                       # Number of times the RAS was used to get a target.
system.cpu.branchPred.RASIncorrect                 19                       # Number of incorrect RAS predictions.
system.cpu.branchPred.indirectLookups          591870                       # Number of indirect predictor lookups.
system.cpu.branchPred.indirectHits             582908                       # Number of indirect target hits.
system.cpu.branchPred.indirectMisses             8962                       # Number of indirect misses.
system.cpu.branchPred.indirectMispredicted         1440                       # Number of mispredicted indirect branches.
system.cpu.commit.commitSquashedInsts        24325008                       # The number of squashed insts skipped by commit
system.cpu.commit.commitNonSpecStalls            5389                       # The number of times commit has been forced to stall to communicate backwards
system.cpu.commit.branchMispredicts             14529                       # The number of times a branch was mispredicted
system.cpu.commit.numCommittedDist::samples     99717022                       # Number of insts commited each cycle
system.cpu.commit.numCommittedDist::mean     1.664906                       # Number of insts commited each cycle
system.cpu.commit.numCommittedDist::stdev     2.564751                       # Number of insts commited each cycle
system.cpu.commit.numCommittedDist::underflows            0      0.00%      0.00% # Number of insts commited each cycle
system.cpu.commit.numCommittedDist::0        50370376     50.51%     50.51% # Number of insts commited each cycle
system.cpu.commit.numCommittedDist::1        19848116     19.90%     70.42% # Number of insts commited each cycle
system.cpu.commit.numCommittedDist::2         8635137      8.66%     79.08% # Number of insts commited each cycle
system.cpu.commit.numCommittedDist::3         3079576      3.09%     82.17% # Number of insts commited each cycle
system.cpu.commit.numCommittedDist::4         3160646      3.17%     85.34% # Number of insts commited each cycle
system.cpu.commit.numCommittedDist::5         1821191      1.83%     87.16% # Number of insts commited each cycle
system.cpu.commit.numCommittedDist::6         1169522      1.17%     88.33% # Number of insts commited each cycle
system.cpu.commit.numCommittedDist::7         2162998      2.17%     90.50% # Number of insts commited each cycle
system.cpu.commit.numCommittedDist::8         9469460      9.50%    100.00% # Number of insts commited each cycle
system.cpu.commit.numCommittedDist::overflows            0      0.00%    100.00% # Number of insts commited each cycle
system.cpu.commit.numCommittedDist::min_value            0                       # Number of insts commited each cycle
system.cpu.commit.numCommittedDist::max_value            8                       # Number of insts commited each cycle
system.cpu.commit.numCommittedDist::total     99717022                       # Number of insts commited each cycle
system.cpu.commit.instsCommitted            100000001                       # Number of instructions committed
system.cpu.commit.opsCommitted              166019455                       # Number of ops (including micro ops) committed
system.cpu.commit.memRefs                    39264133                       # Number of memory references committed
system.cpu.commit.loads                      30740931                       # Number of loads committed
system.cpu.commit.amos                              0                       # Number of atomic instructions committed
system.cpu.commit.membars                         176                       # Number of memory barriers committed
system.cpu.commit.branches                    4827028                       # Number of branches committed
system.cpu.commit.vector                            0                       # Number of committed Vector instructions.
system.cpu.commit.floating                   26165588                       # Number of committed floating point instructions.
system.cpu.commit.integer                   148225635                       # Number of committed integer instructions.
system.cpu.commit.functionCalls                531272                       # Number of function calls committed.
system.cpu.commit.committedInstType_0::No_OpClass      1046605      0.63%      0.63% # Class of committed instruction
system.cpu.commit.committedInstType_0::IntAlu    101615079     61.21%     61.84% # Class of committed instruction
system.cpu.commit.committedInstType_0::IntMult      6312256      3.80%     65.64% # Class of committed instruction
system.cpu.commit.committedInstType_0::IntDiv        97655      0.06%     65.70% # Class of committed instruction
system.cpu.commit.committedInstType_0::FloatAdd      1445015      0.87%     66.57% # Class of committed instruction
system.cpu.commit.committedInstType_0::FloatCmp            0      0.00%     66.57% # Class of committed instruction
system.cpu.commit.committedInstType_0::FloatCvt           32      0.00%     66.57% # Class of committed instruction
system.cpu.commit.committedInstType_0::FloatMult            0      0.00%     66.57% # Class of committed instruction
system.cpu.commit.committedInstType_0::FloatMultAcc            0      0.00%     66.57% # Class of committed instruction
system.cpu.commit.committedInstType_0::FloatDiv            0      0.00%     66.57% # Class of committed instruction
system.cpu.commit.committedInstType_0::FloatMisc            0      0.00%     66.57% # Class of committed instruction
system.cpu.commit.committedInstType_0::FloatSqrt            0      0.00%     66.57% # Class of committed instruction
system.cpu.commit.committedInstType_0::SimdAdd         2294      0.00%     66.57% # Class of committed instruction
system.cpu.commit.committedInstType_0::SimdAddAcc            0      0.00%     66.57% # Class of committed instruction
system.cpu.commit.committedInstType_0::SimdAlu      2855490      1.72%     68.29% # Class of committed instruction
system.cpu.commit.committedInstType_0::SimdCmp           66      0.00%     68.29% # Class of committed instruction
system.cpu.commit.committedInstType_0::SimdCvt         5352      0.00%     68.29% # Class of committed instruction
system.cpu.commit.committedInstType_0::SimdMisc      2865770      1.73%     70.02% # Class of committed instruction
system.cpu.commit.committedInstType_0::SimdMult          248      0.00%     70.02% # Class of committed instruction
system.cpu.commit.committedInstType_0::SimdMultAcc            0      0.00%     70.02% # Class of committed instruction
system.cpu.commit.committedInstType_0::SimdShift          900      0.00%     70.02% # Class of committed instruction
system.cpu.commit.committedInstType_0::SimdShiftAcc            0      0.00%     70.02% # Class of committed instruction
system.cpu.commit.committedInstType_0::SimdDiv            0      0.00%     70.02% # Class of committed instruction
system.cpu.commit.committedInstType_0::SimdSqrt            0      0.00%     70.02% # Class of committed instruction
system.cpu.commit.committedInstType_0::SimdFloatAdd      4779154      2.88%     72.90% # Class of committed instruction
system.cpu.commit.committedInstType_0::SimdFloatAlu            0      0.00%     72.90% # Class of committed instruction
system.cpu.commit.committedInstType_0::SimdFloatCmp            0      0.00%     72.90% # Class of committed instruction
system.cpu.commit.committedInstType_0::SimdFloatCvt      2384878      1.44%     74.34% # Class of committed instruction
system.cpu.commit.committedInstType_0::SimdFloatDiv           15      0.00%     74.34% # Class of committed instruction
system.cpu.commit.committedInstType_0::SimdFloatMisc            0      0.00%     74.34% # Class of committed instruction
system.cpu.commit.committedInstType_0::SimdFloatMult      3344513      2.01%     76.35% # Class of committed instruction
system.cpu.commit.committedInstType_0::SimdFloatMultAcc            0      0.00%     76.35% # Class of committed instruction
system.cpu.commit.committedInstType_0::SimdFloatSqrt            0      0.00%     76.35% # Class of committed instruction
system.cpu.commit.committedInstType_0::SimdReduceAdd            0      0.00%     76.35% # Class of committed instruction
system.cpu.commit.committedInstType_0::SimdReduceAlu            0      0.00%     76.35% # Class of committed instruction
system.cpu.commit.committedInstType_0::SimdReduceCmp            0      0.00%     76.35% # Class of committed instruction
system.cpu.commit.committedInstType_0::SimdFloatReduceAdd            0      0.00%     76.35% # Class of committed instruction
system.cpu.commit.committedInstType_0::SimdFloatReduceCmp            0      0.00%     76.35% # Class of committed instruction
system.cpu.commit.committedInstType_0::SimdAes            0      0.00%     76.35% # Class of committed instruction
system.cpu.commit.committedInstType_0::SimdAesMix            0      0.00%     76.35% # Class of committed instruction
system.cpu.commit.committedInstType_0::SimdSha1Hash            0      0.00%     76.35% # Class of committed instruction
system.cpu.commit.committedInstType_0::SimdSha1Hash2            0      0.00%     76.35% # Class of committed instruction
system.cpu.commit.committedInstType_0::SimdSha256Hash            0      0.00%     76.35% # Class of committed instruction
system.cpu.commit.committedInstType_0::SimdSha256Hash2            0      0.00%     76.35% # Class of committed instruction
system.cpu.commit.committedInstType_0::SimdShaSigma2            0      0.00%     76.35% # Class of committed instruction
system.cpu.commit.committedInstType_0::SimdShaSigma3            0      0.00%     76.35% # Class of committed instruction
system.cpu.commit.committedInstType_0::SimdPredAlu            0      0.00%     76.35% # Class of committed instruction
system.cpu.commit.committedInstType_0::MemRead     24849866     14.97%     91.32% # Class of committed instruction
system.cpu.commit.committedInstType_0::MemWrite      7834725      4.72%     96.04% # Class of committed instruction
system.cpu.commit.committedInstType_0::FloatMemRead      5891065      3.55%     99.59% # Class of committed instruction
system.cpu.commit.committedInstType_0::FloatMemWrite       688477      0.41%    100.00% # Class of committed instruction
system.cpu.commit.committedInstType_0::IprAccess            0      0.00%    100.00% # Class of committed instruction
system.cpu.commit.committedInstType_0::InstPrefetch            0      0.00%    100.00% # Class of committed instruction
system.cpu.commit.committedInstType_0::total    166019455                       # Class of committed instruction
system.cpu.commit.commitEligibleSamples       9469460                       # number cycles where commit BW limit reached
system.cpu.dcache.demand_hits::.cpu.data     42468740                       # number of demand (read+write) hits
system.cpu.dcache.demand_hits::total         42468740                       # number of demand (read+write) hits
system.cpu.dcache.overall_hits::.cpu.data     43806397                       # number of overall hits
system.cpu.dcache.overall_hits::total        43806397                       # number of overall hits
system.cpu.dcache.demand_misses::.cpu.data       529951                       # number of demand (read+write) misses
system.cpu.dcache.demand_misses::total         529951                       # number of demand (read+write) misses
system.cpu.dcache.overall_misses::.cpu.data       684197                       # number of overall misses
system.cpu.dcache.overall_misses::total        684197                       # number of overall misses
system.cpu.dcache.demand_miss_latency::.cpu.data  34237908940                       # number of demand (read+write) miss cycles
system.cpu.dcache.demand_miss_latency::total  34237908940                       # number of demand (read+write) miss cycles
system.cpu.dcache.overall_miss_latency::.cpu.data  34237908940                       # number of overall miss cycles
system.cpu.dcache.overall_miss_latency::total  34237908940                       # number of overall miss cycles
system.cpu.dcache.demand_accesses::.cpu.data     42998691                       # number of demand (read+write) accesses
system.cpu.dcache.demand_accesses::total     42998691                       # number of demand (read+write) accesses
system.cpu.dcache.overall_accesses::.cpu.data     44490594                       # number of overall (read+write) accesses
system.cpu.dcache.overall_accesses::total     44490594                       # number of overall (read+write) accesses
system.cpu.dcache.demand_miss_rate::.cpu.data     0.012325                       # miss rate for demand accesses
system.cpu.dcache.demand_miss_rate::total     0.012325                       # miss rate for demand accesses
system.cpu.dcache.overall_miss_rate::.cpu.data     0.015378                       # miss rate for overall accesses
system.cpu.dcache.overall_miss_rate::total     0.015378                       # miss rate for overall accesses
system.cpu.dcache.demand_avg_miss_latency::.cpu.data 64605.801178                       # average overall miss latency
system.cpu.dcache.demand_avg_miss_latency::total 64605.801178                       # average overall miss latency
system.cpu.dcache.overall_avg_miss_latency::.cpu.data 50041.010031                       # average overall miss latency
system.cpu.dcache.overall_avg_miss_latency::total 50041.010031                       # average overall miss latency
system.cpu.dcache.blocked_cycles::no_mshrs       476570                       # number of cycles access was blocked
system.cpu.dcache.blocked_cycles::no_targets          799                       # number of cycles access was blocked
system.cpu.dcache.blocked::no_mshrs              8694                       # number of cycles access was blocked
system.cpu.dcache.blocked::no_targets               6                       # number of cycles access was blocked
system.cpu.dcache.avg_blocked_cycles::no_mshrs    54.815965                       # average number of cycles each access was blocked
system.cpu.dcache.avg_blocked_cycles::no_targets   133.166667                       # average number of cycles each access was blocked
system.cpu.dcache.writebacks::.writebacks       172386                       # number of writebacks
system.cpu.dcache.writebacks::total            172386                       # number of writebacks
system.cpu.dcache.demand_mshr_hits::.cpu.data       164420                       # number of demand (read+write) MSHR hits
system.cpu.dcache.demand_mshr_hits::total       164420                       # number of demand (read+write) MSHR hits
system.cpu.dcache.overall_mshr_hits::.cpu.data       164420                       # number of overall MSHR hits
system.cpu.dcache.overall_mshr_hits::total       164420                       # number of overall MSHR hits
system.cpu.dcache.demand_mshr_misses::.cpu.data       365531                       # number of demand (read+write) MSHR misses
system.cpu.dcache.demand_mshr_misses::total       365531                       # number of demand (read+write) MSHR misses
system.cpu.dcache.overall_mshr_misses::.cpu.data       422448                       # number of overall MSHR misses
system.cpu.dcache.overall_mshr_misses::total       422448                       # number of overall MSHR misses
system.cpu.dcache.demand_mshr_miss_latency::.cpu.data  24219706940                       # number of demand (read+write) MSHR miss cycles
system.cpu.dcache.demand_mshr_miss_latency::total  24219706940                       # number of demand (read+write) MSHR miss cycles
system.cpu.dcache.overall_mshr_miss_latency::.cpu.data  28485120440                       # number of overall MSHR miss cycles
system.cpu.dcache.overall_mshr_miss_latency::total  28485120440                       # number of overall MSHR miss cycles
system.cpu.dcache.demand_mshr_miss_rate::.cpu.data     0.008501                       # mshr miss rate for demand accesses
system.cpu.dcache.demand_mshr_miss_rate::total     0.008501                       # mshr miss rate for demand accesses
system.cpu.dcache.overall_mshr_miss_rate::.cpu.data     0.009495                       # mshr miss rate for overall accesses
system.cpu.dcache.overall_mshr_miss_rate::total     0.009495                       # mshr miss rate for overall accesses
system.cpu.dcache.demand_avg_mshr_miss_latency::.cpu.data 66258.968295                       # average overall mshr miss latency
system.cpu.dcache.demand_avg_mshr_miss_latency::total 66258.968295                       # average overall mshr miss latency
system.cpu.dcache.overall_avg_mshr_miss_latency::.cpu.data 67428.702325                       # average overall mshr miss latency
system.cpu.dcache.overall_avg_mshr_miss_latency::total 67428.702325                       # average overall mshr miss latency
system.cpu.dcache.replacements                 421935                       # number of replacements
system.cpu.dcache.ReadReq_hits::.cpu.data     34113294                       # number of ReadReq hits
system.cpu.dcache.ReadReq_hits::total        34113294                       # number of ReadReq hits
system.cpu.dcache.ReadReq_misses::.cpu.data       362113                       # number of ReadReq misses
system.cpu.dcache.ReadReq_misses::total        362113                       # number of ReadReq misses
system.cpu.dcache.ReadReq_miss_latency::.cpu.data  21891071000                       # number of ReadReq miss cycles
system.cpu.dcache.ReadReq_miss_latency::total  21891071000                       # number of ReadReq miss cycles
system.cpu.dcache.ReadReq_accesses::.cpu.data     34475407                       # number of ReadReq accesses(hits+misses)
system.cpu.dcache.ReadReq_accesses::total     34475407                       # number of ReadReq accesses(hits+misses)
system.cpu.dcache.ReadReq_miss_rate::.cpu.data     0.010504                       # miss rate for ReadReq accesses
system.cpu.dcache.ReadReq_miss_rate::total     0.010504                       # miss rate for ReadReq accesses
system.cpu.dcache.ReadReq_avg_miss_latency::.cpu.data 60453.700917                       # average ReadReq miss latency
system.cpu.dcache.ReadReq_avg_miss_latency::total 60453.700917                       # average ReadReq miss latency
system.cpu.dcache.ReadReq_mshr_hits::.cpu.data       164411                       # number of ReadReq MSHR hits
system.cpu.dcache.ReadReq_mshr_hits::total       164411                       # number of ReadReq MSHR hits
system.cpu.dcache.ReadReq_mshr_misses::.cpu.data       197702                       # number of ReadReq MSHR misses
system.cpu.dcache.ReadReq_mshr_misses::total       197702                       # number of ReadReq MSHR misses
system.cpu.dcache.ReadReq_mshr_miss_latency::.cpu.data  12041042500                       # number of ReadReq MSHR miss cycles
system.cpu.dcache.ReadReq_mshr_miss_latency::total  12041042500                       # number of ReadReq MSHR miss cycles
system.cpu.dcache.ReadReq_mshr_miss_rate::.cpu.data     0.005735                       # mshr miss rate for ReadReq accesses
system.cpu.dcache.ReadReq_mshr_miss_rate::total     0.005735                       # mshr miss rate for ReadReq accesses
system.cpu.dcache.ReadReq_avg_mshr_miss_latency::.cpu.data 60905.011077                       # average ReadReq mshr miss latency
system.cpu.dcache.ReadReq_avg_mshr_miss_latency::total 60905.011077                       # average ReadReq mshr miss latency
system.cpu.dcache.WriteReq_hits::.cpu.data      8355446                       # number of WriteReq hits
system.cpu.dcache.WriteReq_hits::total        8355446                       # number of WriteReq hits
system.cpu.dcache.WriteReq_misses::.cpu.data       167838                       # number of WriteReq misses
system.cpu.dcache.WriteReq_misses::total       167838                       # number of WriteReq misses
system.cpu.dcache.WriteReq_miss_latency::.cpu.data  12346837940                       # number of WriteReq miss cycles
system.cpu.dcache.WriteReq_miss_latency::total  12346837940                       # number of WriteReq miss cycles
system.cpu.dcache.WriteReq_accesses::.cpu.data      8523284                       # number of WriteReq accesses(hits+misses)
system.cpu.dcache.WriteReq_accesses::total      8523284                       # number of WriteReq accesses(hits+misses)
system.cpu.dcache.WriteReq_miss_rate::.cpu.data     0.019692                       # miss rate for WriteReq accesses
system.cpu.dcache.WriteReq_miss_rate::total     0.019692                       # miss rate for WriteReq accesses
system.cpu.dcache.WriteReq_avg_miss_latency::.cpu.data 73564.019709                       # average WriteReq miss latency
system.cpu.dcache.WriteReq_avg_miss_latency::total 73564.019709                       # average WriteReq miss latency
system.cpu.dcache.WriteReq_mshr_hits::.cpu.data            9                       # number of WriteReq MSHR hits
system.cpu.dcache.WriteReq_mshr_hits::total            9                       # number of WriteReq MSHR hits
system.cpu.dcache.WriteReq_mshr_misses::.cpu.data       167829                       # number of WriteReq MSHR misses
system.cpu.dcache.WriteReq_mshr_misses::total       167829                       # number of WriteReq MSHR misses
system.cpu.dcache.WriteReq_mshr_miss_latency::.cpu.data  12178664440                       # number of WriteReq MSHR miss cycles
system.cpu.dcache.WriteReq_mshr_miss_latency::total  12178664440                       # number of WriteReq MSHR miss cycles
system.cpu.dcache.WriteReq_mshr_miss_rate::.cpu.data     0.019691                       # mshr miss rate for WriteReq accesses
system.cpu.dcache.WriteReq_mshr_miss_rate::total     0.019691                       # mshr miss rate for WriteReq accesses
system.cpu.dcache.WriteReq_avg_mshr_miss_latency::.cpu.data 72565.911970                       # average WriteReq mshr miss latency
system.cpu.dcache.WriteReq_avg_mshr_miss_latency::total 72565.911970                       # average WriteReq mshr miss latency
system.cpu.dcache.SoftPFReq_hits::.cpu.data      1337657                       # number of SoftPFReq hits
system.cpu.dcache.SoftPFReq_hits::total       1337657                       # number of SoftPFReq hits
system.cpu.dcache.SoftPFReq_misses::.cpu.data       154246                       # number of SoftPFReq misses
system.cpu.dcache.SoftPFReq_misses::total       154246                       # number of SoftPFReq misses
system.cpu.dcache.SoftPFReq_accesses::.cpu.data      1491903                       # number of SoftPFReq accesses(hits+misses)
system.cpu.dcache.SoftPFReq_accesses::total      1491903                       # number of SoftPFReq accesses(hits+misses)
system.cpu.dcache.SoftPFReq_miss_rate::.cpu.data     0.103389                       # miss rate for SoftPFReq accesses
system.cpu.dcache.SoftPFReq_miss_rate::total     0.103389                       # miss rate for SoftPFReq accesses
system.cpu.dcache.SoftPFReq_mshr_misses::.cpu.data        56917                       # number of SoftPFReq MSHR misses
system.cpu.dcache.SoftPFReq_mshr_misses::total        56917                       # number of SoftPFReq MSHR misses
system.cpu.dcache.SoftPFReq_mshr_miss_latency::.cpu.data   4265413500                       # number of SoftPFReq MSHR miss cycles
system.cpu.dcache.SoftPFReq_mshr_miss_latency::total   4265413500                       # number of SoftPFReq MSHR miss cycles
system.cpu.dcache.SoftPFReq_mshr_miss_rate::.cpu.data     0.038151                       # mshr miss rate for SoftPFReq accesses
system.cpu.dcache.SoftPFReq_mshr_miss_rate::total     0.038151                       # mshr miss rate for SoftPFReq accesses
system.cpu.dcache.SoftPFReq_avg_mshr_miss_latency::.cpu.data 74940.940317                       # average SoftPFReq mshr miss latency
system.cpu.dcache.SoftPFReq_avg_mshr_miss_latency::total 74940.940317                       # average SoftPFReq mshr miss latency
system.cpu.dcache.power_state.pwrStateResidencyTicks::UNDEFINED  51563722500                       # Cumulative time (in ticks) in various power states
system.cpu.dcache.tags.tagsinuse           511.687554                       # Cycle average of tags in use
system.cpu.dcache.tags.total_refs            44228846                       # Total number of references to valid blocks.
system.cpu.dcache.tags.sampled_refs            422447                       # Sample count of references to valid blocks.
system.cpu.dcache.tags.avg_refs            104.696793                       # Average number of references to valid blocks.
system.cpu.dcache.tags.warmup_cycle            163000                       # Cycle when the warmup percentage was hit.
system.cpu.dcache.tags.occ_blocks::.cpu.data   511.687554                       # Average occupied blocks per requestor
system.cpu.dcache.tags.occ_percent::.cpu.data     0.999390                       # Average percentage of cache occupancy
system.cpu.dcache.tags.occ_percent::total     0.999390                       # Average percentage of cache occupancy
system.cpu.dcache.tags.occ_task_id_blocks::1024          512                       # Occupied blocks per task id
system.cpu.dcache.tags.age_task_id_blocks_1024::0           57                       # Occupied blocks per task id
system.cpu.dcache.tags.age_task_id_blocks_1024::1          355                       # Occupied blocks per task id
system.cpu.dcache.tags.age_task_id_blocks_1024::2           93                       # Occupied blocks per task id
system.cpu.dcache.tags.age_task_id_blocks_1024::3            7                       # Occupied blocks per task id
system.cpu.dcache.tags.occ_task_id_percent::1024            1                       # Percentage of cache occupancy per task id
system.cpu.dcache.tags.tag_accesses          89403635                       # Number of tag accesses
system.cpu.dcache.tags.data_accesses         89403635                       # Number of data accesses
system.cpu.dcache.tags.power_state.pwrStateResidencyTicks::UNDEFINED  51563722500                       # Cumulative time (in ticks) in various power states
system.cpu.decode.idleCycles                  7683492                       # Number of cycles decode is idle
system.cpu.decode.blockedCycles              69348568                       # Number of cycles decode is blocked
system.cpu.decode.runCycles                  10925381                       # Number of cycles decode is running
system.cpu.decode.unblockCycles              14679333                       # Number of cycles decode is unblocking
system.cpu.decode.squashCycles                 294610                       # Number of cycles decode is squashing
system.cpu.decode.branchResolved              3072907                       # Number of times decode resolved a  branch
system.cpu.decode.branchMispred                  1715                       # Number of times decode detected a branch misprediction
system.cpu.decode.decodedInsts              198319757                       # Number of instructions handled by decode
system.cpu.decode.squashedInsts                  7821                       # Number of squashed instructions handled by decode
system.cpu.dtb.rdAccesses                    37960463                       # TLB accesses on read requests
system.cpu.dtb.wrAccesses                    16873257                       # TLB accesses on write requests
system.cpu.dtb.rdMisses                          5589                       # TLB misses on read requests
system.cpu.dtb.wrMisses                        188525                       # TLB misses on write requests
system.cpu.dtb.walker.power_state.pwrStateResidencyTicks::UNDEFINED  51563722500                       # Cumulative time (in ticks) in various power states
system.cpu.dtb_walker_cache.blocked_cycles::no_mshrs            0                       # number of cycles access was blocked
system.cpu.dtb_walker_cache.blocked_cycles::no_targets            0                       # number of cycles access was blocked
system.cpu.dtb_walker_cache.blocked::no_mshrs            0                       # number of cycles access was blocked
system.cpu.dtb_walker_cache.blocked::no_targets            0                       # number of cycles access was blocked
system.cpu.dtb_walker_cache.avg_blocked_cycles::no_mshrs          nan                       # average number of cycles each access was blocked
system.cpu.dtb_walker_cache.avg_blocked_cycles::no_targets          nan                       # average number of cycles each access was blocked
system.cpu.dtb_walker_cache.replacements            0                       # number of replacements
system.cpu.dtb_walker_cache.power_state.pwrStateResidencyTicks::UNDEFINED  51563722500                       # Cumulative time (in ticks) in various power states
system.cpu.dtb_walker_cache.tags.tagsinuse            0                       # Cycle average of tags in use
system.cpu.dtb_walker_cache.tags.total_refs            0                       # Total number of references to valid blocks.
system.cpu.dtb_walker_cache.tags.sampled_refs            0                       # Sample count of references to valid blocks.
system.cpu.dtb_walker_cache.tags.avg_refs          nan                       # Average number of references to valid blocks.
system.cpu.dtb_walker_cache.tags.warmup_cycle            0                       # Cycle when the warmup percentage was hit.
system.cpu.dtb_walker_cache.tags.tag_accesses            0                       # Number of tag accesses
system.cpu.dtb_walker_cache.tags.data_accesses            0                       # Number of data accesses
system.cpu.dtb_walker_cache.tags.power_state.pwrStateResidencyTicks::UNDEFINED  51563722500                       # Cumulative time (in ticks) in various power states
system.cpu.fetch.icacheStallCycles           12910618                       # Number of cycles fetch is stalled on an Icache miss
system.cpu.fetch.insts                      117841230                       # Number of instructions fetch has processed
system.cpu.fetch.branches                     6476792                       # Number of branches that fetch encountered
system.cpu.fetch.predictedBranches            4593669                       # Number of branches that fetch has predicted taken
system.cpu.fetch.cycles                      89717798                       # Number of cycles fetch has run and was not squashing or blocked
system.cpu.fetch.squashCycles                  592566                       # Number of cycles fetch has spent squashing
system.cpu.fetch.miscStallCycles                  814                       # Number of cycles fetch has spent waiting on interrupts,or bad addresses, or out of MSHRs
system.cpu.fetch.pendingTrapStallCycles          5813                       # Number of stall cycles due to pending traps
system.cpu.fetch.pendingQuiesceStallCycles            9                       # Number of stall cycles due to pending quiesce instructions
system.cpu.fetch.icacheWaitRetryStallCycles           49                       # Number of stall cycles due to full MSHR
system.cpu.fetch.cacheLines                  12629591                       # Number of cache lines fetched
system.cpu.fetch.icacheSquashes                  9073                       # Number of outstanding Icache misses that were squashed
system.cpu.fetch.nisnDist::samples          102931384                       # Number of instructions fetched each cycle (Total)
system.cpu.fetch.nisnDist::mean              2.027264                       # Number of instructions fetched each cycle (Total)
system.cpu.fetch.nisnDist::stdev             3.200682                       # Number of instructions fetched each cycle (Total)
system.cpu.fetch.nisnDist::underflows               0      0.00%      0.00% # Number of instructions fetched each cycle (Total)
system.cpu.fetch.nisnDist::0                 68392304     66.44%     66.44% # Number of instructions fetched each cycle (Total)
system.cpu.fetch.nisnDist::1                  2001094      1.94%     68.39% # Number of instructions fetched each cycle (Total)
system.cpu.fetch.nisnDist::2                  3576015      3.47%     71.86% # Number of instructions fetched each cycle (Total)
system.cpu.fetch.nisnDist::3                  2540721      2.47%     74.33% # Number of instructions fetched each cycle (Total)
system.cpu.fetch.nisnDist::4                  2029951      1.97%     76.30% # Number of instructions fetched each cycle (Total)
system.cpu.fetch.nisnDist::5                  2066774      2.01%     78.31% # Number of instructions fetched each cycle (Total)
system.cpu.fetch.nisnDist::6                  1372628      1.33%     79.64% # Number of instructions fetched each cycle (Total)
system.cpu.fetch.nisnDist::7                  2410811      2.34%     81.99% # Number of instructions fetched each cycle (Total)
system.cpu.fetch.nisnDist::8                 18541086     18.01%    100.00% # Number of instructions fetched each cycle (Total)
system.cpu.fetch.nisnDist::overflows                0      0.00%    100.00% # Number of instructions fetched each cycle (Total)
system.cpu.fetch.nisnDist::min_value                0                       # Number of instructions fetched each cycle (Total)
system.cpu.fetch.nisnDist::max_value                8                       # Number of instructions fetched each cycle (Total)
system.cpu.fetch.nisnDist::total            102931384                       # Number of instructions fetched each cycle (Total)
system.cpu.fetch.branchRate                  0.062804                       # Number of branch fetches per cycle
system.cpu.fetch.rate                        1.142676                       # Number of inst fetches per cycle
system.cpu.icache.demand_hits::.cpu.inst     12624855                       # number of demand (read+write) hits
system.cpu.icache.demand_hits::total         12624855                       # number of demand (read+write) hits
system.cpu.icache.overall_hits::.cpu.inst     12624855                       # number of overall hits
system.cpu.icache.overall_hits::total        12624855                       # number of overall hits
system.cpu.icache.demand_misses::.cpu.inst         4736                       # number of demand (read+write) misses
system.cpu.icache.demand_misses::total           4736                       # number of demand (read+write) misses
system.cpu.icache.overall_misses::.cpu.inst         4736                       # number of overall misses
system.cpu.icache.overall_misses::total          4736                       # number of overall misses
system.cpu.icache.demand_miss_latency::.cpu.inst    281789999                       # number of demand (read+write) miss cycles
system.cpu.icache.demand_miss_latency::total    281789999                       # number of demand (read+write) miss cycles
system.cpu.icache.overall_miss_latency::.cpu.inst    281789999                       # number of overall miss cycles
system.cpu.icache.overall_miss_latency::total    281789999                       # number of overall miss cycles
system.cpu.icache.demand_accesses::.cpu.inst     12629591                       # number of demand (read+write) accesses
system.cpu.icache.demand_accesses::total     12629591                       # number of demand (read+write) accesses
system.cpu.icache.overall_accesses::.cpu.inst     12629591                       # number of overall (read+write) accesses
system.cpu.icache.overall_accesses::total     12629591                       # number of overall (read+write) accesses
system.cpu.icache.demand_miss_rate::.cpu.inst     0.000375                       # miss rate for demand accesses
system.cpu.icache.demand_miss_rate::total     0.000375                       # miss rate for demand accesses
system.cpu.icache.overall_miss_rate::.cpu.inst     0.000375                       # miss rate for overall accesses
system.cpu.icache.overall_miss_rate::total     0.000375                       # miss rate for overall accesses
system.cpu.icache.demand_avg_miss_latency::.cpu.inst 59499.577492                       # average overall miss latency
system.cpu.icache.demand_avg_miss_latency::total 59499.577492                       # average overall miss latency
system.cpu.icache.overall_avg_miss_latency::.cpu.inst 59499.577492                       # average overall miss latency
system.cpu.icache.overall_avg_miss_latency::total 59499.577492                       # average overall miss latency
system.cpu.icache.blocked_cycles::no_mshrs          988                       # number of cycles access was blocked
system.cpu.icache.blocked_cycles::no_targets            0                       # number of cycles access was blocked
system.cpu.icache.blocked::no_mshrs                21                       # number of cycles access was blocked
system.cpu.icache.blocked::no_targets               0                       # number of cycles access was blocked
system.cpu.icache.avg_blocked_cycles::no_mshrs    47.047619                       # average number of cycles each access was blocked
system.cpu.icache.avg_blocked_cycles::no_targets          nan                       # average number of cycles each access was blocked
system.cpu.icache.writebacks::.writebacks         3256                       # number of writebacks
system.cpu.icache.writebacks::total              3256                       # number of writebacks
system.cpu.icache.demand_mshr_hits::.cpu.inst          967                       # number of demand (read+write) MSHR hits
system.cpu.icache.demand_mshr_hits::total          967                       # number of demand (read+write) MSHR hits
system.cpu.icache.overall_mshr_hits::.cpu.inst          967                       # number of overall MSHR hits
system.cpu.icache.overall_mshr_hits::total          967                       # number of overall MSHR hits
system.cpu.icache.demand_mshr_misses::.cpu.inst         3769                       # number of demand (read+write) MSHR misses
system.cpu.icache.demand_mshr_misses::total         3769                       # number of demand (read+write) MSHR misses
system.cpu.icache.overall_mshr_misses::.cpu.inst         3769                       # number of overall MSHR misses
system.cpu.icache.overall_mshr_misses::total         3769                       # number of overall MSHR misses
system.cpu.icache.demand_mshr_miss_latency::.cpu.inst    225064499                       # number of demand (read+write) MSHR miss cycles
system.cpu.icache.demand_mshr_miss_latency::total    225064499                       # number of demand (read+write) MSHR miss cycles
system.cpu.icache.overall_mshr_miss_latency::.cpu.inst    225064499                       # number of overall MSHR miss cycles
system.cpu.icache.overall_mshr_miss_latency::total    225064499                       # number of overall MSHR miss cycles
system.cpu.icache.demand_mshr_miss_rate::.cpu.inst     0.000298                       # mshr miss rate for demand accesses
system.cpu.icache.demand_mshr_miss_rate::total     0.000298                       # mshr miss rate for demand accesses
system.cpu.icache.overall_mshr_miss_rate::.cpu.inst     0.000298                       # mshr miss rate for overall accesses
system.cpu.icache.overall_mshr_miss_rate::total     0.000298                       # mshr miss rate for overall accesses
system.cpu.icache.demand_avg_mshr_miss_latency::.cpu.inst 59714.645529                       # average overall mshr miss latency
system.cpu.icache.demand_avg_mshr_miss_latency::total 59714.645529                       # average overall mshr miss latency
system.cpu.icache.overall_avg_mshr_miss_latency::.cpu.inst 59714.645529                       # average overall mshr miss latency
system.cpu.icache.overall_avg_mshr_miss_latency::total 59714.645529                       # average overall mshr miss latency
system.cpu.icache.replacements                   3256                       # number of replacements
system.cpu.icache.ReadReq_hits::.cpu.inst     12624855                       # number of ReadReq hits
system.cpu.icache.ReadReq_hits::total        12624855                       # number of ReadReq hits
system.cpu.icache.ReadReq_misses::.cpu.inst         4736                       # number of ReadReq misses
system.cpu.icache.ReadReq_misses::total          4736                       # number of ReadReq misses
system.cpu.icache.ReadReq_miss_latency::.cpu.inst    281789999                       # number of ReadReq miss cycles
system.cpu.icache.ReadReq_miss_latency::total    281789999                       # number of ReadReq miss cycles
system.cpu.icache.ReadReq_accesses::.cpu.inst     12629591                       # number of ReadReq accesses(hits+misses)
system.cpu.icache.ReadReq_accesses::total     12629591                       # number of ReadReq accesses(hits+misses)
system.cpu.icache.ReadReq_miss_rate::.cpu.inst     0.000375                       # miss rate for ReadReq accesses
system.cpu.icache.ReadReq_miss_rate::total     0.000375                       # miss rate for ReadReq accesses
system.cpu.icache.ReadReq_avg_miss_latency::.cpu.inst 59499.577492                       # average ReadReq miss latency
system.cpu.icache.ReadReq_avg_miss_latency::total 59499.577492                       # average ReadReq miss latency
system.cpu.icache.ReadReq_mshr_hits::.cpu.inst          967                       # number of ReadReq MSHR hits
system.cpu.icache.ReadReq_mshr_hits::total          967                       # number of ReadReq MSHR hits
system.cpu.icache.ReadReq_mshr_misses::.cpu.inst         3769                       # number of ReadReq MSHR misses
system.cpu.icache.ReadReq_mshr_misses::total         3769                       # number of ReadReq MSHR misses
system.cpu.icache.ReadReq_mshr_miss_latency::.cpu.inst    225064499                       # number of ReadReq MSHR miss cycles
system.cpu.icache.ReadReq_mshr_miss_latency::total    225064499                       # number of ReadReq MSHR miss cycles
system.cpu.icache.ReadReq_mshr_miss_rate::.cpu.inst     0.000298                       # mshr miss rate for ReadReq accesses
system.cpu.icache.ReadReq_mshr_miss_rate::total     0.000298                       # mshr miss rate for ReadReq accesses
system.cpu.icache.ReadReq_avg_mshr_miss_latency::.cpu.inst 59714.645529                       # average ReadReq mshr miss latency
system.cpu.icache.ReadReq_avg_mshr_miss_latency::total 59714.645529                       # average ReadReq mshr miss latency
system.cpu.icache.power_state.pwrStateResidencyTicks::UNDEFINED  51563722500                       # Cumulative time (in ticks) in various power states
system.cpu.icache.tags.tagsinuse           511.362695                       # Cycle average of tags in use
system.cpu.icache.tags.total_refs            12628624                       # Total number of references to valid blocks.
system.cpu.icache.tags.sampled_refs              3769                       # Sample count of references to valid blocks.
system.cpu.icache.tags.avg_refs           3350.656408                       # Average number of references to valid blocks.
system.cpu.icache.tags.warmup_cycle             79500                       # Cycle when the warmup percentage was hit.
system.cpu.icache.tags.occ_blocks::.cpu.inst   511.362695                       # Average occupied blocks per requestor
system.cpu.icache.tags.occ_percent::.cpu.inst     0.998755                       # Average percentage of cache occupancy
system.cpu.icache.tags.occ_percent::total     0.998755                       # Average percentage of cache occupancy
system.cpu.icache.tags.occ_task_id_blocks::1024          512                       # Occupied blocks per task id
system.cpu.icache.tags.age_task_id_blocks_1024::3            9                       # Occupied blocks per task id
system.cpu.icache.tags.age_task_id_blocks_1024::4          503                       # Occupied blocks per task id
system.cpu.icache.tags.occ_task_id_percent::1024            1                       # Percentage of cache occupancy per task id
system.cpu.icache.tags.tag_accesses          25262951                       # Number of tag accesses
system.cpu.icache.tags.data_accesses         25262951                       # Number of data accesses
system.cpu.icache.tags.power_state.pwrStateResidencyTicks::UNDEFINED  51563722500                       # Cumulative time (in ticks) in various power states
system.cpu.interrupts.clk_domain.clock           8000                       # Clock period in ticks
system.cpu.itb.rdAccesses                           0                       # TLB accesses on read requests
system.cpu.itb.wrAccesses                    12630484                       # TLB accesses on write requests
system.cpu.itb.rdMisses                             0                       # TLB misses on read requests
system.cpu.itb.wrMisses                          1152                       # TLB misses on write requests
system.cpu.itb.walker.power_state.pwrStateResidencyTicks::UNDEFINED  51563722500                       # Cumulative time (in ticks) in various power states
system.cpu.itb_walker_cache.blocked_cycles::no_mshrs            0                       # number of cycles access was blocked
system.cpu.itb_walker_cache.blocked_cycles::no_targets            0                       # number of cycles access was blocked
system.cpu.itb_walker_cache.blocked::no_mshrs            0                       # number of cycles access was blocked
system.cpu.itb_walker_cache.blocked::no_targets            0                       # number of cycles access was blocked
system.cpu.itb_walker_cache.avg_blocked_cycles::no_mshrs          nan                       # average number of cycles each access was blocked
system.cpu.itb_walker_cache.avg_blocked_cycles::no_targets          nan                       # average number of cycles each access was blocked
system.cpu.itb_walker_cache.replacements            0                       # number of replacements
system.cpu.itb_walker_cache.power_state.pwrStateResidencyTicks::UNDEFINED  51563722500                       # Cumulative time (in ticks) in various power states
system.cpu.itb_walker_cache.tags.tagsinuse            0                       # Cycle average of tags in use
system.cpu.itb_walker_cache.tags.total_refs            0                       # Total number of references to valid blocks.
system.cpu.itb_walker_cache.tags.sampled_refs            0                       # Sample count of references to valid blocks.
system.cpu.itb_walker_cache.tags.avg_refs          nan                       # Average number of references to valid blocks.
system.cpu.itb_walker_cache.tags.warmup_cycle            0                       # Cycle when the warmup percentage was hit.
system.cpu.itb_walker_cache.tags.tag_accesses            0                       # Number of tag accesses
system.cpu.itb_walker_cache.tags.data_accesses            0                       # Number of data accesses
system.cpu.itb_walker_cache.tags.power_state.pwrStateResidencyTicks::UNDEFINED  51563722500                       # Cumulative time (in ticks) in various power states
system.cpu.lsq0.forwLoads                     1982742                       # Number of loads that had data forwarded from stores
system.cpu.lsq0.squashedLoads                 7291238                       # Number of loads squashed
system.cpu.lsq0.ignoredResponses                   97                       # Number of memory responses ignored because the instruction is squashed
system.cpu.lsq0.memOrderViolation                 573                       # Number of memory ordering violations
system.cpu.lsq0.squashedStores                8981855                       # Number of stores squashed
system.cpu.lsq0.rescheduledLoads                 9695                       # Number of loads that were rescheduled
system.cpu.lsq0.blockedByCache                   7877                       # Number of times an access to memory failed due to the cache being blocked
system.cpu.power_state.pwrStateResidencyTicks::ON  51563722500                       # Cumulative time (in ticks) in various power states
system.cpu.rename.squashCycles                 294610                       # Number of cycles rename is squashing
system.cpu.rename.idleCycles                 12407020                       # Number of cycles rename is idle
system.cpu.rename.blockCycles                25639498                       # Number of cycles rename is blocking
system.cpu.rename.serializeStallCycles           3102                       # count of cycles rename stalledfor serializing inst
system.cpu.rename.runCycles                  20655059                       # Number of cycles rename is running
system.cpu.rename.unblockCycles              43932095                       # Number of cycles rename is unblocking
system.cpu.rename.renamedInsts              196419402                       # Number of instructions processed by rename
system.cpu.rename.ROBFullEvents                 10767                       # Number of times rename has blocked due to ROB full
system.cpu.rename.IQFullEvents               22038420                       # Number of times rename has blocked due to IQ full
system.cpu.rename.LQFullEvents                1523393                       # Number of times rename has blocked due to LQ full
system.cpu.rename.SQFullEvents               17238309                       # Number of times rename has blocked due to SQ full
system.cpu.rename.renamedOperands           249024216                       # Number of destination operands rename has renamed
system.cpu.rename.lookups                   478398860                       # Number of register rename lookups that rename has made
system.cpu.rename.intLookups                324091849                       # Number of integer rename lookups
system.cpu.rename.fpLookups                  48474776                       # Number of floating rename lookups
system.cpu.rename.committedMaps             225115857                       # Number of HB maps that are committed
system.cpu.rename.undoneMaps                 23908227                       # Number of HB maps that are undone due to squashing
system.cpu.rename.serializing                      49                       # count of serializing insts renamed
system.cpu.rename.tempSerializing                  34                       # count of temporary serializing insts renamed
system.cpu.rename.skidInsts                  66717314                       # count of insts added to the skid buffer
system.cpu.rob.reads                        276957810                       # The number of ROB reads
system.cpu.rob.writes                       383903657                       # The number of ROB writes
system.cpu.thread_0.numInsts                100000001                       # Number of Instructions committed
system.cpu.thread_0.numOps                  166019455                       # Number of Ops committed
system.cpu.thread_0.numMemRefs                      0                       # Number of Memory References
system.cpu_clk_domain.clock                       500                       # Clock period in ticks
system.cpu_voltage_domain.voltage                   1                       # Voltage in Volts
system.l2.demand_hits::.cpu.inst                  876                       # number of demand (read+write) hits
system.l2.demand_hits::.cpu.data                37624                       # number of demand (read+write) hits
system.l2.demand_hits::total                    38500                       # number of demand (read+write) hits
system.l2.overall_hits::.cpu.inst                 876                       # number of overall hits
system.l2.overall_hits::.cpu.data               37624                       # number of overall hits
system.l2.overall_hits::total                   38500                       # number of overall hits
system.l2.demand_misses::.cpu.inst               2893                       # number of demand (read+write) misses
system.l2.demand_misses::.cpu.data             384824                       # number of demand (read+write) misses
system.l2.demand_misses::total                 387717                       # number of demand (read+write) misses
system.l2.overall_misses::.cpu.inst              2893                       # number of overall misses
system.l2.overall_misses::.cpu.data            384824                       # number of overall misses
system.l2.overall_misses::total                387717                       # number of overall misses
system.l2.demand_miss_latency::.cpu.inst    209918000                       # number of demand (read+write) miss cycles
system.l2.demand_miss_latency::.cpu.data  27433235500                       # number of demand (read+write) miss cycles
system.l2.demand_miss_latency::total      27643153500                       # number of demand (read+write) miss cycles
system.l2.overall_miss_latency::.cpu.inst    209918000                       # number of overall miss cycles
system.l2.overall_miss_latency::.cpu.data  27433235500                       # number of overall miss cycles
system.l2.overall_miss_latency::total     27643153500                       # number of overall miss cycles
system.l2.demand_accesses::.cpu.inst             3769                       # number of demand (read+write) accesses
[...]
system.mem_ctrls.dram.writeBursts              165739                       # Number of DRAM write bursts
system.mem_ctrls.dram.perBankRdBursts::0        24364                       # Per bank write bursts
system.mem_ctrls.dram.perBankRdBursts::1        24839                       # Per bank write bursts
system.mem_ctrls.dram.perBankRdBursts::2        24569                       # Per bank write bursts
system.mem_ctrls.dram.perBankRdBursts::3        24719                       # Per bank write bursts
system.mem_ctrls.dram.perBankRdBursts::4        24127                       # Per bank write bursts
system.mem_ctrls.dram.perBankRdBursts::5        24143                       # Per bank write bursts
system.mem_ctrls.dram.perBankRdBursts::6        23851                       # Per bank write bursts
system.mem_ctrls.dram.perBankRdBursts::7        24129                       # Per bank write bursts
system.mem_ctrls.dram.perBankRdBursts::8        23981                       # Per bank write bursts
system.mem_ctrls.dram.perBankRdBursts::9        23894                       # Per bank write bursts
system.mem_ctrls.dram.perBankRdBursts::10        23888                       # Per bank write bursts
system.mem_ctrls.dram.perBankRdBursts::11        24069                       # Per bank write bursts
system.mem_ctrls.dram.perBankRdBursts::12        23987                       # Per bank write bursts
system.mem_ctrls.dram.perBankRdBursts::13        24229                       # Per bank write bursts
system.mem_ctrls.dram.perBankRdBursts::14        24603                       # Per bank write bursts
system.mem_ctrls.dram.perBankRdBursts::15        24315                       # Per bank write bursts
system.mem_ctrls.dram.perBankWrBursts::0        10216                       # Per bank write bursts
system.mem_ctrls.dram.perBankWrBursts::1        10510                       # Per bank write bursts
system.mem_ctrls.dram.perBankWrBursts::2        10224                       # Per bank write bursts
system.mem_ctrls.dram.perBankWrBursts::3        10257                       # Per bank write bursts
system.mem_ctrls.dram.perBankWrBursts::4        10133                       # Per bank write bursts
system.mem_ctrls.dram.perBankWrBursts::5        10307                       # Per bank write bursts
system.mem_ctrls.dram.perBankWrBursts::6        10268                       # Per bank write bursts
system.mem_ctrls.dram.perBankWrBursts::7        10422                       # Per bank write bursts
system.mem_ctrls.dram.perBankWrBursts::8        10318                       # Per bank write bursts
system.mem_ctrls.dram.perBankWrBursts::9        10232                       # Per bank write bursts
system.mem_ctrls.dram.perBankWrBursts::10        10327                       # Per bank write bursts
system.mem_ctrls.dram.perBankWrBursts::11        10415                       # Per bank write bursts
system.mem_ctrls.dram.perBankWrBursts::12        10417                       # Per bank write bursts
system.mem_ctrls.dram.perBankWrBursts::13        10680                       # Per bank write bursts
system.mem_ctrls.dram.perBankWrBursts::14        10670                       # Per bank write bursts
system.mem_ctrls.dram.perBankWrBursts::15        10343                       # Per bank write bursts
system.mem_ctrls.dram.totQLat              3615263250                       # Total ticks spent queuing
system.mem_ctrls.dram.totBusLat            1938535000                       # Total ticks spent in databus transfers
system.mem_ctrls.dram.totMemAccLat        10884769500                       # Total ticks spent from burst creation until serviced by the DRAM
system.mem_ctrls.dram.avgQLat                 9324.73                       # Average queueing delay per DRAM burst
system.mem_ctrls.dram.avgBusLat               5000.00                       # Average bus latency per DRAM burst
system.mem_ctrls.dram.avgMemAccLat           28074.73                       # Average memory access latency per DRAM burst
system.mem_ctrls.dram.readRowHits              326644                       # Number of row buffer hits during reads
system.mem_ctrls.dram.writeRowHits             139165                       # Number of row buffer hits during writes
system.mem_ctrls.dram.readRowHitRate            84.25                       # Row buffer hit rate for reads
system.mem_ctrls.dram.writeRowHitRate           83.97                       # Row buffer hit rate for writes
system.mem_ctrls.dram.bytesPerActivate::samples        87632                       # Bytes accessed per row activation
system.mem_ctrls.dram.bytesPerActivate::mean   404.179660                       # Bytes accessed per row activation
system.mem_ctrls.dram.bytesPerActivate::gmean   253.570571                       # Bytes accessed per row activation
system.mem_ctrls.dram.bytesPerActivate::stdev   348.941949                       # Bytes accessed per row activation
system.mem_ctrls.dram.bytesPerActivate::0-127        22535     25.72%     25.72% # Bytes accessed per row activation
system.mem_ctrls.dram.bytesPerActivate::128-255        17272     19.71%     45.43% # Bytes accessed per row activation
system.mem_ctrls.dram.bytesPerActivate::256-383         8899     10.15%     55.58% # Bytes accessed per row activation
system.mem_ctrls.dram.bytesPerActivate::384-511         9159     10.45%     66.03% # Bytes accessed per row activation
system.mem_ctrls.dram.bytesPerActivate::512-639         5380      6.14%     72.17% # Bytes accessed per row activation
system.mem_ctrls.dram.bytesPerActivate::640-767         3614      4.12%     76.30% # Bytes accessed per row activation
system.mem_ctrls.dram.bytesPerActivate::768-895         4830      5.51%     81.81% # Bytes accessed per row activation
system.mem_ctrls.dram.bytesPerActivate::896-1023         3761      4.29%     86.10% # Bytes accessed per row activation
system.mem_ctrls.dram.bytesPerActivate::1024-1151        12182     13.90%    100.00% # Bytes accessed per row activation
system.mem_ctrls.dram.bytesPerActivate::total        87632                       # Bytes accessed per row activation
system.mem_ctrls.dram.bytesRead              24813248                       # Total number of bytes read from DRAM
system.mem_ctrls.dram.bytesWritten           10607296                       # Total number of bytes written to DRAM
system.mem_ctrls.dram.avgRdBW              481.215219                       # Average DRAM read bandwidth in MiBytes/s
system.mem_ctrls.dram.avgWrBW              205.712379                       # Average DRAM write bandwidth in MiBytes/s
system.mem_ctrls.dram.peakBW                 12800.00                       # Theoretical peak bandwidth in MiByte/s
system.mem_ctrls.dram.busUtil                    5.37                       # Data bus utilization in percentage
system.mem_ctrls.dram.busUtilRead                3.76                       # Data bus utilization in percentage for reads
system.mem_ctrls.dram.busUtilWrite               1.61                       # Data bus utilization in percentage for writes
system.mem_ctrls.dram.pageHitRate               84.17                       # Row buffer hit rate, read and write combined
system.mem_ctrls.dram.power_state.pwrStateResidencyTicks::UNDEFINED  51563722500                       # Cumulative time (in ticks) in various power states
system.mem_ctrls.dram.rank0.actEnergy       310647120                       # Energy for activate commands per rank (pJ)
system.mem_ctrls.dram.rank0.preEnergy       165101475                       # Energy for precharge commands per rank (pJ)
system.mem_ctrls.dram.rank0.readEnergy     1390450740                       # Energy for read commands per rank (pJ)
system.mem_ctrls.dram.rank0.writeEnergy     429799140                       # Energy for write commands per rank (pJ)
system.mem_ctrls.dram.rank0.refreshEnergy 4070146080.000000                       # Energy for refresh commands per rank (pJ)
system.mem_ctrls.dram.rank0.actBackEnergy  19199893680                       # Energy for active background per rank (pJ)
system.mem_ctrls.dram.rank0.preBackEnergy   3632137920                       # Energy for precharge background per rank (pJ)
system.mem_ctrls.dram.rank0.actPowerDownEnergy            0                       # Energy for active power-down per rank (pJ)
system.mem_ctrls.dram.rank0.prePowerDownEnergy            0                       # Energy for precharge power-down per rank (pJ)
system.mem_ctrls.dram.rank0.selfRefreshEnergy            0                       # Energy for self refresh per rank (pJ)
system.mem_ctrls.dram.rank0.totalEnergy   29198176155                       # Total energy per rank (pJ)
system.mem_ctrls.dram.rank0.averagePower   566.254233                       # Core power per rank (mW)
system.mem_ctrls.dram.rank0.totalIdleTime            0                       # Total Idle time Per DRAM Rank
system.mem_ctrls.dram.rank0.pwrStateTime::IDLE   9199846500                       # Time in different power states
system.mem_ctrls.dram.rank0.pwrStateTime::REF   1721720000                       # Time in different power states
system.mem_ctrls.dram.rank0.pwrStateTime::SREF            0                       # Time in different power states
system.mem_ctrls.dram.rank0.pwrStateTime::PRE_PDN            0                       # Time in different power states
system.mem_ctrls.dram.rank0.pwrStateTime::ACT  40642156000                       # Time in different power states
system.mem_ctrls.dram.rank0.pwrStateTime::ACT_PDN            0                       # Time in different power states
system.mem_ctrls.dram.rank1.actEnergy       315081060                       # Energy for activate commands per rank (pJ)
system.mem_ctrls.dram.rank1.preEnergy       167461965                       # Energy for precharge commands per rank (pJ)
system.mem_ctrls.dram.rank1.readEnergy     1377777240                       # Energy for read commands per rank (pJ)
system.mem_ctrls.dram.rank1.writeEnergy     435358440                       # Energy for write commands per rank (pJ)
system.mem_ctrls.dram.rank1.refreshEnergy 4070146080.000000                       # Energy for refresh commands per rank (pJ)
system.mem_ctrls.dram.rank1.actBackEnergy  18972505860                       # Energy for active background per rank (pJ)
system.mem_ctrls.dram.rank1.preBackEnergy   3823622400                       # Energy for precharge background per rank (pJ)
system.mem_ctrls.dram.rank1.actPowerDownEnergy            0                       # Energy for active power-down per rank (pJ)
system.mem_ctrls.dram.rank1.prePowerDownEnergy            0                       # Energy for precharge power-down per rank (pJ)
system.mem_ctrls.dram.rank1.selfRefreshEnergy            0                       # Energy for self refresh per rank (pJ)
system.mem_ctrls.dram.rank1.totalEnergy   29161953045                       # Total energy per rank (pJ)
system.mem_ctrls.dram.rank1.averagePower   565.551741                       # Core power per rank (mW)
system.mem_ctrls.dram.rank1.totalIdleTime            0                       # Total Idle time Per DRAM Rank
system.mem_ctrls.dram.rank1.pwrStateTime::IDLE   9693462000                       # Time in different power states
system.mem_ctrls.dram.rank1.pwrStateTime::REF   1721720000                       # Time in different power states
system.mem_ctrls.dram.rank1.pwrStateTime::SREF            0                       # Time in different power states
system.mem_ctrls.dram.rank1.pwrStateTime::PRE_PDN            0                       # Time in different power states
system.mem_ctrls.dram.rank1.pwrStateTime::ACT  40148540500                       # Time in different power states
system.mem_ctrls.dram.rank1.pwrStateTime::ACT_PDN            0                       # Time in different power states
system.mem_ctrls.power_state.pwrStateResidencyTicks::UNDEFINED  51563722500                       # Cumulative time (in ticks) in various power states
system.membus.trans_dist::ReadResp             222006                       # Transaction distribution
system.membus.trans_dist::WritebackDirty       165755                       # Transaction distribution
system.membus.trans_dist::CleanEvict           213248                       # Transaction distribution
system.membus.trans_dist::UpgradeReq                1                       # Transaction distribution
system.membus.trans_dist::ReadExReq            165710                       # Transaction distribution
system.membus.trans_dist::ReadExResp           165710                       # Transaction distribution
system.membus.trans_dist::ReadSharedReq        222006                       # Transaction distribution
system.membus.pkt_count_system.l2.mem_side_port::system.mem_ctrls.port      1154436                       # Packet count per connected requestor and responder (bytes)
system.membus.pkt_count_system.l2.mem_side_port::total      1154436                       # Packet count per connected requestor and responder (bytes)
system.membus.pkt_count::total                1154436                       # Packet count per connected requestor and responder (bytes)
system.membus.pkt_size_system.l2.mem_side_port::system.mem_ctrls.port     35422144                       # Cumulative packet size per connected requestor and responder (bytes)
system.membus.pkt_size_system.l2.mem_side_port::total     35422144                       # Cumulative packet size per connected requestor and responder (bytes)
system.membus.pkt_size::total                35422144                       # Cumulative packet size per connected requestor and responder (bytes)
system.membus.snoops                                0                       # Total snoops (count)
system.membus.snoopTraffic                          0                       # Total snoop traffic (bytes)
system.membus.snoop_fanout::samples            387717                       # Request fanout histogram
system.membus.snoop_fanout::mean                    0                       # Request fanout histogram
system.membus.snoop_fanout::stdev                   0                       # Request fanout histogram
system.membus.snoop_fanout::underflows              0      0.00%      0.00% # Request fanout histogram
system.membus.snoop_fanout::0                  387717    100.00%    100.00% # Request fanout histogram
system.membus.snoop_fanout::1                       0      0.00%    100.00% # Request fanout histogram
system.membus.snoop_fanout::overflows               0      0.00%    100.00% # Request fanout histogram
system.membus.snoop_fanout::min_value               0                       # Request fanout histogram
system.membus.snoop_fanout::max_value               0                       # Request fanout histogram
system.membus.snoop_fanout::total              387717                       # Request fanout histogram
system.membus.power_state.pwrStateResidencyTicks::UNDEFINED  51563722500                       # Cumulative time (in ticks) in various power states
system.membus.reqLayer2.occupancy           357435000                       # Layer occupancy (ticks)
system.membus.reqLayer2.utilization               0.7                       # Layer utilization (%)
system.membus.respLayer1.occupancy          484645000                       # Layer occupancy (ticks)
system.membus.respLayer1.utilization              0.9                       # Layer utilization (%)
system.tol2bus.trans_dist::ReadResp            258387                       # Transaction distribution
system.tol2bus.trans_dist::WritebackDirty       338141                       # Transaction distribution
system.tol2bus.trans_dist::WritebackClean         3256                       # Transaction distribution
system.tol2bus.trans_dist::CleanEvict          463996                       # Transaction distribution
system.tol2bus.trans_dist::UpgradeReq               1                       # Transaction distribution
system.tol2bus.trans_dist::UpgradeResp              1                       # Transaction distribution
system.tol2bus.trans_dist::ReadExReq           167829                       # Transaction distribution
system.tol2bus.trans_dist::ReadExResp          167829                       # Transaction distribution
system.tol2bus.trans_dist::ReadCleanReq          3769                       # Transaction distribution
system.tol2bus.trans_dist::ReadSharedReq       254619                       # Transaction distribution
system.tol2bus.pkt_count_system.cpu.icache.mem_side_port::system.l2.cpu_side_port        10794                       # Packet count per connected requestor and responder (bytes)
system.tol2bus.pkt_count_system.cpu.dcache.mem_side_port::system.l2.cpu_side_port      1266832                       # Packet count per connected requestor and responder (bytes)
system.tol2bus.pkt_count::total               1277626                       # Packet count per connected requestor and responder (bytes)
system.tol2bus.pkt_size_system.cpu.icache.mem_side_port::system.l2.cpu_side_port       449600                       # Cumulative packet size per connected requestor and responder (bytes)
system.tol2bus.pkt_size_system.cpu.dcache.mem_side_port::system.l2.cpu_side_port     38069312                       # Cumulative packet size per connected requestor and responder (bytes)
system.tol2bus.pkt_size::total               38518912                       # Cumulative packet size per connected requestor and responder (bytes)
system.tol2bus.snoops                          380202                       # Total snoops (count)
system.tol2bus.snoopTraffic                  10608320                       # Total snoop traffic (bytes)
system.tol2bus.snoop_fanout::samples           806420                       # Request fanout histogram
system.tol2bus.snoop_fanout::mean            0.001545                       # Request fanout histogram
system.tol2bus.snoop_fanout::stdev           0.039277                       # Request fanout histogram
system.tol2bus.snoop_fanout::underflows             0      0.00%      0.00% # Request fanout histogram
system.tol2bus.snoop_fanout::0                 805174     99.85%     99.85% # Request fanout histogram
system.tol2bus.snoop_fanout::1                   1246      0.15%    100.00% # Request fanout histogram
system.tol2bus.snoop_fanout::2                      0      0.00%    100.00% # Request fanout histogram
system.tol2bus.snoop_fanout::3                      0      0.00%    100.00% # Request fanout histogram
system.tol2bus.snoop_fanout::4                      0      0.00%    100.00% # Request fanout histogram
system.tol2bus.snoop_fanout::overflows              0      0.00%    100.00% # Request fanout histogram
system.tol2bus.snoop_fanout::min_value              0                       # Request fanout histogram
system.tol2bus.snoop_fanout::max_value              1                       # Request fanout histogram
system.tol2bus.snoop_fanout::total             806420                       # Request fanout histogram
system.tol2bus.power_state.pwrStateResidencyTicks::UNDEFINED  51563722500                       # Cumulative time (in ticks) in various power states
system.tol2bus.reqLayer0.occupancy          601346500                       # Layer occupancy (ticks)
system.tol2bus.reqLayer0.utilization              1.2                       # Layer utilization (%)
system.tol2bus.respLayer0.occupancy           5655995                       # Layer occupancy (ticks)
system.tol2bus.respLayer0.utilization             0.0                       # Layer utilization (%)
system.tol2bus.respLayer1.occupancy         633671499                       # Layer occupancy (ticks)
system.tol2bus.respLayer1.utilization             1.2                       # Layer utilization (%)
system.voltage_domain.voltage                       1                       # Voltage in Volts

---------- End Simulation Statistics   ----------
