Global frequency set at 1000000000000 ticks per second
Redirecting stdout to /data/home/rwa116/Project/CMPT750-Proj-Benchmark/results/X86/spec2017/625.x264_s/DerivO3CPU/PerceptronBP/simout
Redirecting stderr to /data/home/rwa116/Project/CMPT750-Proj-Benchmark/results/X86/spec2017/625.x264_s/DerivO3CPU/PerceptronBP/simerr
gem5 Simulator System.  http://gem5.org
gem5 is copyrighted software; use the --copyright option for details.

gem5 version 20.1.0.2
gem5 compiled Nov  5 2023 03:49:49
gem5 started Nov 12 2023 03:35:55
gem5 executing on ARCH-750, pid 3945948
command line: /data/home/jiatangz/CMPT750-Proj/build/X86/gem5.opt -re --outdir=/data/home/rwa116/Project/CMPT750-Proj-Benchmark/results/X86/spec2017/625.x264_s/DerivO3CPU/PerceptronBP /data/home/jiatangz/CMPT750-Proj/configs/example/se.py --cpu-type=DerivO3CPU --caches --l2cache --l1d_size=32kB --l1i_size=32kB --l2_size=512kB --bp-type=PerceptronBP --cmd=/data/home/rwa116/Project/spec/benchspec/CPU/625.x264_s/build/build_base_mytest-m64.0000/x264_s '--options=--pass 1 --stats x264_stats.log --bitrate 1000 --frames 1000 -o BuckBunny_New.264 BuckBunny.264 1280x720 > run_000-1000_x264_s_base.mytest-m64_x264_pass1.out 2>> run_000-1000_x264_s_base.mytest-m64_x264_pass1.err' --sys-clock=4GHz --warmup-insts=1000000 --maxinsts=10000000

info: Standard input is not a terminal, disabling listeners.
**** REAL SIMULATION ****
Exiting @ tick 3030201500 because a thread reached the max instruction count
