
---------- Begin Simulation Statistics ----------
final_tick                                 2963517000                       # Number of ticks from beginning of simulation (restored from checkpoints and never reset)
host_inst_rate                                 110532                       # Simulator instruction rate (inst/s)
host_mem_usage                                 706964                       # Number of bytes of host memory used
host_op_rate                                   197980                       # Simulator op (including micro ops) rate (op/s)
host_seconds                                    90.47                       # Real time elapsed on the host
host_tick_rate                               32756217                       # Simulator tick rate (ticks/s)
sim_freq                                 1000000000000                       # Frequency of simulated ticks
sim_insts                                    10000000                       # Number of instructions simulated
sim_ops                                      17911641                       # Number of ops (including micro ops) simulated
sim_seconds                                  0.002964                       # Number of seconds simulated
sim_ticks                                  2963517000                       # Number of ticks simulated
system.cpu.cc_regfile_reads                   4887744                       # number of cc regfile reads
system.cpu.cc_regfile_writes                  4259006                       # number of cc regfile writes
system.cpu.committedInsts                    10000000                       # Number of Instructions Simulated
system.cpu.committedOps                      17911641                       # Number of Ops (including micro ops) Simulated
system.cpu.cpi                               0.592704                       # CPI: Cycles Per Instruction
system.cpu.cpi_total                         0.592704                       # CPI: Total CPI of All Threads
system.cpu.fp_regfile_reads                  12296703                       # number of floating regfile reads
system.cpu.fp_regfile_writes                  6923438                       # number of floating regfile writes
system.cpu.idleCycles                          142617                       # Total number of cycles that the CPU has spent unscheduled due to idling
system.cpu.iew.branchMispredicts                19772                       # Number of branch mispredicts detected at execute
system.cpu.iew.exec_branches                  1116518                       # Number of branches executed
system.cpu.iew.exec_nop                             0                       # number of nop insts executed
system.cpu.iew.exec_rate                     3.093337                       # Inst execution rate
system.cpu.iew.exec_refs                      2792124                       # number of memory reference insts executed
system.cpu.iew.exec_stores                     486042                       # Number of stores executed
system.cpu.iew.exec_swp                             0                       # number of swp insts executed
system.cpu.iew.iewBlockCycles                  191888                       # Number of cycles IEW is blocking
system.cpu.iew.iewDispLoadInsts               2325646                       # Number of dispatched load instructions
system.cpu.iew.iewDispNonSpecInsts                 23                       # Number of dispatched non-speculative instructions
system.cpu.iew.iewDispSquashedInsts              1622                       # Number of squashed instructions skipped by dispatch
system.cpu.iew.iewDispStoreInsts               498650                       # Number of dispatched store instructions
system.cpu.iew.iewDispatchedInsts            18777961                       # Number of instructions dispatched to IQ
system.cpu.iew.iewExecLoadInsts               2306082                       # Number of load instructions executed
system.cpu.iew.iewExecSquashedInsts             25294                       # Number of squashed instructions skipped in execute
system.cpu.iew.iewExecutedInsts              18334315                       # Number of executed instructions
system.cpu.iew.iewIQFullEvents                   1293                       # Number of times the IQ has become full, causing a stall
system.cpu.iew.iewIdleCycles                        0                       # Number of cycles IEW is idle
system.cpu.iew.iewLSQFullEvents                 44850                       # Number of times the LSQ has become full, causing a stall
system.cpu.iew.iewSquashCycles                  17566                       # Number of cycles IEW is squashing
system.cpu.iew.iewUnblockCycles                 46710                       # Number of cycles IEW is unblocking
system.cpu.iew.memOrderViolationEvents            151                       # Number of memory order violations
system.cpu.iew.predictedNotTakenIncorrect        11807                       # Number of branches that were predicted not taken incorrectly
system.cpu.iew.predictedTakenIncorrect           7965                       # Number of branches that were predicted taken incorrectly
system.cpu.iew.wb_consumers                  25222139                       # num instructions consuming a value
system.cpu.iew.wb_count                      18318637                       # cumulative count of insts written-back
system.cpu.iew.wb_fanout                     0.570335                       # average fanout of values written-back
system.cpu.iew.wb_producers                  14385062                       # num instructions producing a value
system.cpu.iew.wb_rate                       3.090692                       # insts written-back per cycle
system.cpu.iew.wb_sent                       18324961                       # cumulative count of insts sent to commit
system.cpu.int_regfile_reads                 18771869                       # number of integer regfile reads
system.cpu.int_regfile_writes                 9715263                       # number of integer regfile writes
system.cpu.ipc                               1.687184                       # IPC: Instructions Per Cycle
system.cpu.ipc_total                         1.687184                       # IPC: Total IPC of All Threads
system.cpu.iq.FU_type_0::No_OpClass            318216      1.73%      1.73% # Type of FU issued
system.cpu.iq.FU_type_0::IntAlu               9902979     53.94%     55.67% # Type of FU issued
system.cpu.iq.FU_type_0::IntMult                 2043      0.01%     55.68% # Type of FU issued
system.cpu.iq.FU_type_0::IntDiv                106156      0.58%     56.26% # Type of FU issued
system.cpu.iq.FU_type_0::FloatAdd              424350      2.31%     58.57% # Type of FU issued
system.cpu.iq.FU_type_0::FloatCmp                   0      0.00%     58.57% # Type of FU issued
system.cpu.iq.FU_type_0::FloatCvt                  32      0.00%     58.57% # Type of FU issued
system.cpu.iq.FU_type_0::FloatMult                  0      0.00%     58.57% # Type of FU issued
system.cpu.iq.FU_type_0::FloatMultAcc               0      0.00%     58.57% # Type of FU issued
system.cpu.iq.FU_type_0::FloatDiv                   0      0.00%     58.57% # Type of FU issued
system.cpu.iq.FU_type_0::FloatMisc                  0      0.00%     58.57% # Type of FU issued
system.cpu.iq.FU_type_0::FloatSqrt                  0      0.00%     58.57% # Type of FU issued
system.cpu.iq.FU_type_0::SimdAdd                 3023      0.02%     58.59% # Type of FU issued
system.cpu.iq.FU_type_0::SimdAddAcc                 0      0.00%     58.59% # Type of FU issued
system.cpu.iq.FU_type_0::SimdAlu               851746      4.64%     63.23% # Type of FU issued
system.cpu.iq.FU_type_0::SimdCmp                   18      0.00%     63.23% # Type of FU issued
system.cpu.iq.FU_type_0::SimdCvt                 7158      0.04%     63.27% # Type of FU issued
system.cpu.iq.FU_type_0::SimdMisc              848327      4.62%     67.89% # Type of FU issued
system.cpu.iq.FU_type_0::SimdMult                  64      0.00%     67.89% # Type of FU issued
system.cpu.iq.FU_type_0::SimdMultAcc                0      0.00%     67.89% # Type of FU issued
system.cpu.iq.FU_type_0::SimdShift               2370      0.01%     67.90% # Type of FU issued
system.cpu.iq.FU_type_0::SimdShiftAcc               0      0.00%     67.90% # Type of FU issued
system.cpu.iq.FU_type_0::SimdDiv                    0      0.00%     67.90% # Type of FU issued
system.cpu.iq.FU_type_0::SimdSqrt                   0      0.00%     67.90% # Type of FU issued
system.cpu.iq.FU_type_0::SimdFloatAdd         1405615      7.66%     75.56% # Type of FU issued
system.cpu.iq.FU_type_0::SimdFloatAlu               0      0.00%     75.56% # Type of FU issued
system.cpu.iq.FU_type_0::SimdFloatCmp               0      0.00%     75.56% # Type of FU issued
system.cpu.iq.FU_type_0::SimdFloatCvt          702986      3.83%     79.39% # Type of FU issued
system.cpu.iq.FU_type_0::SimdFloatDiv               2      0.00%     79.39% # Type of FU issued
system.cpu.iq.FU_type_0::SimdFloatMisc              0      0.00%     79.39% # Type of FU issued
system.cpu.iq.FU_type_0::SimdFloatMult         984236      5.36%     84.75% # Type of FU issued
system.cpu.iq.FU_type_0::SimdFloatMultAcc            0      0.00%     84.75% # Type of FU issued
system.cpu.iq.FU_type_0::SimdFloatSqrt              0      0.00%     84.75% # Type of FU issued
system.cpu.iq.FU_type_0::SimdReduceAdd              0      0.00%     84.75% # Type of FU issued
system.cpu.iq.FU_type_0::SimdReduceAlu              0      0.00%     84.75% # Type of FU issued
system.cpu.iq.FU_type_0::SimdReduceCmp              0      0.00%     84.75% # Type of FU issued
system.cpu.iq.FU_type_0::SimdFloatReduceAdd            0      0.00%     84.75% # Type of FU issued
system.cpu.iq.FU_type_0::SimdFloatReduceCmp            0      0.00%     84.75% # Type of FU issued
system.cpu.iq.FU_type_0::SimdAes                    0      0.00%     84.75% # Type of FU issued
system.cpu.iq.FU_type_0::SimdAesMix                 0      0.00%     84.75% # Type of FU issued
system.cpu.iq.FU_type_0::SimdSha1Hash               0      0.00%     84.75% # Type of FU issued
system.cpu.iq.FU_type_0::SimdSha1Hash2              0      0.00%     84.75% # Type of FU issued
system.cpu.iq.FU_type_0::SimdSha256Hash             0      0.00%     84.75% # Type of FU issued
system.cpu.iq.FU_type_0::SimdSha256Hash2            0      0.00%     84.75% # Type of FU issued
system.cpu.iq.FU_type_0::SimdShaSigma2              0      0.00%     84.75% # Type of FU issued
system.cpu.iq.FU_type_0::SimdShaSigma3              0      0.00%     84.75% # Type of FU issued
system.cpu.iq.FU_type_0::SimdPredAlu                0      0.00%     84.75% # Type of FU issued
system.cpu.iq.FU_type_0::MemRead               755348      4.11%     88.86% # Type of FU issued
system.cpu.iq.FU_type_0::MemWrite              479624      2.61%     91.47% # Type of FU issued
system.cpu.iq.FU_type_0::FloatMemRead         1557505      8.48%     99.96% # Type of FU issued
system.cpu.iq.FU_type_0::FloatMemWrite           7816      0.04%    100.00% # Type of FU issued
system.cpu.iq.FU_type_0::IprAccess                  0      0.00%    100.00% # Type of FU issued
system.cpu.iq.FU_type_0::InstPrefetch               0      0.00%    100.00% # Type of FU issued
system.cpu.iq.FU_type_0::total               18359614                       # Type of FU issued
system.cpu.iq.fp_alu_accesses                 7359212                       # Number of floating point alu accesses
system.cpu.iq.fp_inst_queue_reads            14718231                       # Number of floating instruction queue reads
system.cpu.iq.fp_inst_queue_wakeup_accesses      7355486                       # Number of floating instruction queue wakeup accesses
system.cpu.iq.fp_inst_queue_writes            7409499                       # Number of floating instruction queue writes
system.cpu.iq.fu_busy_cnt                      160627                       # FU busy when requested
system.cpu.iq.fu_busy_rate                   0.008749                       # FU busy rate (busy events/executed inst)
system.cpu.iq.fu_full::No_OpClass                   0      0.00%      0.00% # attempts to use FU when none available
system.cpu.iq.fu_full::IntAlu                  157806     98.24%     98.24% # attempts to use FU when none available
system.cpu.iq.fu_full::IntMult                      0      0.00%     98.24% # attempts to use FU when none available
system.cpu.iq.fu_full::IntDiv                       0      0.00%     98.24% # attempts to use FU when none available
system.cpu.iq.fu_full::FloatAdd                     0      0.00%     98.24% # attempts to use FU when none available
system.cpu.iq.fu_full::FloatCmp                     0      0.00%     98.24% # attempts to use FU when none available
system.cpu.iq.fu_full::FloatCvt                     0      0.00%     98.24% # attempts to use FU when none available
system.cpu.iq.fu_full::FloatMult                    0      0.00%     98.24% # attempts to use FU when none available
system.cpu.iq.fu_full::FloatMultAcc                 0      0.00%     98.24% # attempts to use FU when none available
system.cpu.iq.fu_full::FloatDiv                     0      0.00%     98.24% # attempts to use FU when none available
system.cpu.iq.fu_full::FloatMisc                    0      0.00%     98.24% # attempts to use FU when none available
system.cpu.iq.fu_full::FloatSqrt                    0      0.00%     98.24% # attempts to use FU when none available
system.cpu.iq.fu_full::SimdAdd                      2      0.00%     98.25% # attempts to use FU when none available
system.cpu.iq.fu_full::SimdAddAcc                   0      0.00%     98.25% # attempts to use FU when none available
system.cpu.iq.fu_full::SimdAlu                    104      0.06%     98.31% # attempts to use FU when none available
system.cpu.iq.fu_full::SimdCmp                      0      0.00%     98.31% # attempts to use FU when none available
system.cpu.iq.fu_full::SimdCvt                     33      0.02%     98.33% # attempts to use FU when none available
system.cpu.iq.fu_full::SimdMisc                     7      0.00%     98.33% # attempts to use FU when none available
system.cpu.iq.fu_full::SimdMult                     0      0.00%     98.33% # attempts to use FU when none available
system.cpu.iq.fu_full::SimdMultAcc                  0      0.00%     98.33% # attempts to use FU when none available
system.cpu.iq.fu_full::SimdShift                   41      0.03%     98.36% # attempts to use FU when none available
system.cpu.iq.fu_full::SimdShiftAcc                 0      0.00%     98.36% # attempts to use FU when none available
system.cpu.iq.fu_full::SimdDiv                      0      0.00%     98.36% # attempts to use FU when none available
system.cpu.iq.fu_full::SimdSqrt                     0      0.00%     98.36% # attempts to use FU when none available
system.cpu.iq.fu_full::SimdFloatAdd                 0      0.00%     98.36% # attempts to use FU when none available
system.cpu.iq.fu_full::SimdFloatAlu                 0      0.00%     98.36% # attempts to use FU when none available
system.cpu.iq.fu_full::SimdFloatCmp                 0      0.00%     98.36% # attempts to use FU when none available
system.cpu.iq.fu_full::SimdFloatCvt                 0      0.00%     98.36% # attempts to use FU when none available
system.cpu.iq.fu_full::SimdFloatDiv                 0      0.00%     98.36% # attempts to use FU when none available
system.cpu.iq.fu_full::SimdFloatMisc                0      0.00%     98.36% # attempts to use FU when none available
system.cpu.iq.fu_full::SimdFloatMult                0      0.00%     98.36% # attempts to use FU when none available
system.cpu.iq.fu_full::SimdFloatMultAcc             0      0.00%     98.36% # attempts to use FU when none available
system.cpu.iq.fu_full::SimdFloatSqrt                0      0.00%     98.36% # attempts to use FU when none available
system.cpu.iq.fu_full::SimdReduceAdd                0      0.00%     98.36% # attempts to use FU when none available
system.cpu.iq.fu_full::SimdReduceAlu                0      0.00%     98.36% # attempts to use FU when none available
system.cpu.iq.fu_full::SimdReduceCmp                0      0.00%     98.36% # attempts to use FU when none available
system.cpu.iq.fu_full::SimdFloatReduceAdd            0      0.00%     98.36% # attempts to use FU when none available
system.cpu.iq.fu_full::SimdFloatReduceCmp            0      0.00%     98.36% # attempts to use FU when none available
system.cpu.iq.fu_full::SimdAes                      0      0.00%     98.36% # attempts to use FU when none available
system.cpu.iq.fu_full::SimdAesMix                   0      0.00%     98.36% # attempts to use FU when none available
system.cpu.iq.fu_full::SimdSha1Hash                 0      0.00%     98.36% # attempts to use FU when none available
system.cpu.iq.fu_full::SimdSha1Hash2                0      0.00%     98.36% # attempts to use FU when none available
system.cpu.iq.fu_full::SimdSha256Hash               0      0.00%     98.36% # attempts to use FU when none available
system.cpu.iq.fu_full::SimdSha256Hash2              0      0.00%     98.36% # attempts to use FU when none available
system.cpu.iq.fu_full::SimdShaSigma2                0      0.00%     98.36% # attempts to use FU when none available
system.cpu.iq.fu_full::SimdShaSigma3                0      0.00%     98.36% # attempts to use FU when none available
system.cpu.iq.fu_full::SimdPredAlu                  0      0.00%     98.36% # attempts to use FU when none available
system.cpu.iq.fu_full::MemRead                   1488      0.93%     99.29% # attempts to use FU when none available
system.cpu.iq.fu_full::MemWrite                   854      0.53%     99.82% # attempts to use FU when none available
system.cpu.iq.fu_full::FloatMemRead                90      0.06%     99.87% # attempts to use FU when none available
system.cpu.iq.fu_full::FloatMemWrite              202      0.13%    100.00% # attempts to use FU when none available
system.cpu.iq.fu_full::IprAccess                    0      0.00%    100.00% # attempts to use FU when none available
system.cpu.iq.fu_full::InstPrefetch                 0      0.00%    100.00% # attempts to use FU when none available
system.cpu.iq.int_alu_accesses               10842813                       # Number of integer alu accesses
system.cpu.iq.int_inst_queue_reads           27949100                       # Number of integer instruction queue reads
system.cpu.iq.int_inst_queue_wakeup_accesses     10963151                       # Number of integer instruction queue wakeup accesses
system.cpu.iq.int_inst_queue_writes          12234792                       # Number of integer instruction queue writes
system.cpu.iq.iqInstsAdded                   18777936                       # Number of instructions added to the IQ (excludes non-spec)
system.cpu.iq.iqInstsIssued                  18359614                       # Number of instructions issued
system.cpu.iq.iqNonSpecInstsAdded                  25                       # Number of non-speculative instructions added to the IQ
system.cpu.iq.iqSquashedInstsExamined          866196                       # Number of squashed instructions iterated over during squash; mainly for profiling
system.cpu.iq.iqSquashedInstsIssued              3063                       # Number of squashed instructions issued
system.cpu.iq.iqSquashedNonSpecRemoved              7                       # Number of squashed non-spec instructions that were removed
system.cpu.iq.iqSquashedOperandsExamined      1863798                       # Number of squashed operands that are examined and possibly removed from graph
system.cpu.iq.issued_per_cycle::samples       5784418                       # Number of insts issued each cycle
system.cpu.iq.issued_per_cycle::mean         3.173978                       # Number of insts issued each cycle
system.cpu.iq.issued_per_cycle::stdev        2.117636                       # Number of insts issued each cycle
system.cpu.iq.issued_per_cycle::underflows            0      0.00%      0.00% # Number of insts issued each cycle
system.cpu.iq.issued_per_cycle::0              626403     10.83%     10.83% # Number of insts issued each cycle
system.cpu.iq.issued_per_cycle::1              760344     13.14%     23.97% # Number of insts issued each cycle
system.cpu.iq.issued_per_cycle::2             1099853     19.01%     42.99% # Number of insts issued each cycle
system.cpu.iq.issued_per_cycle::3              908967     15.71%     58.70% # Number of insts issued each cycle
system.cpu.iq.issued_per_cycle::4              876584     15.15%     73.86% # Number of insts issued each cycle
system.cpu.iq.issued_per_cycle::5              481537      8.32%     82.18% # Number of insts issued each cycle
system.cpu.iq.issued_per_cycle::6              574782      9.94%     92.12% # Number of insts issued each cycle
system.cpu.iq.issued_per_cycle::7              337634      5.84%     97.95% # Number of insts issued each cycle
system.cpu.iq.issued_per_cycle::8              118314      2.05%    100.00% # Number of insts issued each cycle
system.cpu.iq.issued_per_cycle::overflows            0      0.00%    100.00% # Number of insts issued each cycle
system.cpu.iq.issued_per_cycle::min_value            0                       # Number of insts issued each cycle
system.cpu.iq.issued_per_cycle::max_value            8                       # Number of insts issued each cycle
system.cpu.iq.issued_per_cycle::total         5784418                       # Number of insts issued each cycle
system.cpu.iq.rate                           3.097605                       # Inst issue rate
system.cpu.iq.vec_alu_accesses                      0                       # Number of vector alu accesses
system.cpu.iq.vec_inst_queue_reads                  0                       # Number of vector instruction queue reads
system.cpu.iq.vec_inst_queue_wakeup_accesses            0                       # Number of vector instruction queue wakeup accesses
system.cpu.iq.vec_inst_queue_writes                 0                       # Number of vector instruction queue writes
system.cpu.memDep0.conflictingLoads              4028                       # Number of conflicting loads.
system.cpu.memDep0.conflictingStores             1907                       # Number of conflicting stores.
system.cpu.memDep0.insertedLoads              2325646                       # Number of loads inserted to the mem dependence unit.
system.cpu.memDep0.insertedStores              498650                       # Number of stores inserted to the mem dependence unit.
system.cpu.misc_regfile_reads                 6137219                       # number of misc regfile reads
system.cpu.misc_regfile_writes                     18                       # number of misc regfile writes
system.cpu.numCycles                          5927035                       # number of cpu cycles simulated
system.cpu.numWorkItemsCompleted                    0                       # number of work items this cpu completed
system.cpu.numWorkItemsStarted                      0                       # number of work items this cpu started
system.cpu.timesIdled                            1549                       # Number of times that the entire CPU went into an idle state and unscheduled itself
system.cpu.workload.numSyscalls                    57                       # Number of system calls
system.membus.snoop_filter.hit_multi_requests            0                       # Number of requests hitting in the snoop filter with multiple (>1) holders of the requested data.
system.membus.snoop_filter.hit_multi_snoops            0                       # Number of snoops hitting in the snoop filter with multiple (>1) holders of the requested data.
system.membus.snoop_filter.hit_single_requests         6468                       # Number of requests hitting in the snoop filter with a single holder of the requested data.
system.membus.snoop_filter.hit_single_snoops            0                       # Number of snoops hitting in the snoop filter with a single holder of the requested data.
system.membus.snoop_filter.tot_requests         21641                       # Total number of requests made to the snoop filter.
system.membus.snoop_filter.tot_snoops               0                       # Total number of snoops made to the snoop filter.
system.tol2bus.snoop_filter.hit_multi_requests           13                       # Number of requests hitting in the snoop filter with multiple (>1) holders of the requested data.
system.tol2bus.snoop_filter.hit_multi_snoops            0                       # Number of snoops hitting in the snoop filter with multiple (>1) holders of the requested data.
system.tol2bus.snoop_filter.hit_single_requests        16312                       # Number of requests hitting in the snoop filter with a single holder of the requested data.
system.tol2bus.snoop_filter.hit_single_snoops          517                       # Number of snoops hitting in the snoop filter with a single holder of the requested data.
system.tol2bus.snoop_filter.tot_requests        33648                       # Total number of requests made to the snoop filter.
system.tol2bus.snoop_filter.tot_snoops            517                       # Total number of snoops made to the snoop filter.
system.clk_domain.clock                           250                       # Clock period in ticks
system.cpu.branchPred.lookups                 1230490                       # Number of BP lookups
system.cpu.branchPred.condPredicted            776581                       # Number of conditional branches predicted
system.cpu.branchPred.condIncorrect             18219                       # Number of conditional branches incorrect
system.cpu.branchPred.BTBLookups               409336                       # Number of BTB lookups
system.cpu.branchPred.BTBHits                  397034                       # Number of BTB hits
system.cpu.branchPred.BTBHitPct             96.994645                       # BTB Hit Percentage
system.cpu.branchPred.RASUsed                  145353                       # Number of times the RAS was used to get a target.
system.cpu.branchPred.RASIncorrect                  6                       # Number of incorrect RAS predictions.
system.cpu.branchPred.indirectLookups          149789                       # Number of indirect predictor lookups.
system.cpu.branchPred.indirectHits             142052                       # Number of indirect target hits.
system.cpu.branchPred.indirectMisses             7737                       # Number of indirect misses.
system.cpu.branchPred.indirectMispredicted         1226                       # Number of mispredicted indirect branches.
system.cpu.commit.commitSquashedInsts          856888                       # The number of squashed insts skipped by commit
system.cpu.commit.commitNonSpecStalls              18                       # The number of times commit has been forced to stall to communicate backwards
system.cpu.commit.branchMispredicts             17086                       # The number of times a branch was mispredicted
system.cpu.commit.numCommittedDist::samples      5665327                       # Number of insts commited each cycle
system.cpu.commit.numCommittedDist::mean     3.161625                       # Number of insts commited each cycle
system.cpu.commit.numCommittedDist::stdev     2.891527                       # Number of insts commited each cycle
system.cpu.commit.numCommittedDist::underflows            0      0.00%      0.00% # Number of insts commited each cycle
system.cpu.commit.numCommittedDist::0          862989     15.23%     15.23% # Number of insts commited each cycle
system.cpu.commit.numCommittedDist::1         1628060     28.74%     43.97% # Number of insts commited each cycle
system.cpu.commit.numCommittedDist::2          751678     13.27%     57.24% # Number of insts commited each cycle
system.cpu.commit.numCommittedDist::3          467213      8.25%     65.49% # Number of insts commited each cycle
system.cpu.commit.numCommittedDist::4          156912      2.77%     68.25% # Number of insts commited each cycle
system.cpu.commit.numCommittedDist::5          297164      5.25%     73.50% # Number of insts commited each cycle
system.cpu.commit.numCommittedDist::6          157281      2.78%     76.28% # Number of insts commited each cycle
system.cpu.commit.numCommittedDist::7          430808      7.60%     83.88% # Number of insts commited each cycle
system.cpu.commit.numCommittedDist::8          913222     16.12%    100.00% # Number of insts commited each cycle
system.cpu.commit.numCommittedDist::overflows            0      0.00%    100.00% # Number of insts commited each cycle
system.cpu.commit.numCommittedDist::min_value            0                       # Number of insts commited each cycle
system.cpu.commit.numCommittedDist::max_value            8                       # Number of insts commited each cycle
system.cpu.commit.numCommittedDist::total      5665327                       # Number of insts commited each cycle
system.cpu.commit.instsCommitted             10000000                       # Number of instructions committed
system.cpu.commit.opsCommitted               17911641                       # Number of ops (including micro ops) committed
system.cpu.commit.memRefs                     2712929                       # Number of memory references committed
system.cpu.commit.loads                       2242649                       # Number of loads committed
system.cpu.commit.amos                              0                       # Number of atomic instructions committed
system.cpu.commit.membars                           0                       # Number of memory barriers committed
system.cpu.commit.branches                    1090119                       # Number of branches committed
system.cpu.commit.vector                            0                       # Number of committed Vector instructions.
system.cpu.commit.floating                    7334254                       # Number of committed floating point instructions.
system.cpu.commit.integer                    12675624                       # Number of committed integer instructions.
system.cpu.commit.functionCalls                142858                       # Number of function calls committed.
system.cpu.commit.committedInstType_0::No_OpClass       304826      1.70%      1.70% # Class of committed instruction
system.cpu.commit.committedInstType_0::IntAlu      9580457     53.49%     55.19% # Class of committed instruction
system.cpu.commit.committedInstType_0::IntMult         1379      0.01%     55.20% # Class of committed instruction
system.cpu.commit.committedInstType_0::IntDiv        97485      0.54%     55.74% # Class of committed instruction
system.cpu.commit.committedInstType_0::FloatAdd       422302      2.36%     58.10% # Class of committed instruction
system.cpu.commit.committedInstType_0::FloatCmp            0      0.00%     58.10% # Class of committed instruction
system.cpu.commit.committedInstType_0::FloatCvt           32      0.00%     58.10% # Class of committed instruction
system.cpu.commit.committedInstType_0::FloatMult            0      0.00%     58.10% # Class of committed instruction
system.cpu.commit.committedInstType_0::FloatMultAcc            0      0.00%     58.10% # Class of committed instruction
system.cpu.commit.committedInstType_0::FloatDiv            0      0.00%     58.10% # Class of committed instruction
system.cpu.commit.committedInstType_0::FloatMisc            0      0.00%     58.10% # Class of committed instruction
system.cpu.commit.committedInstType_0::FloatSqrt            0      0.00%     58.10% # Class of committed instruction
system.cpu.commit.committedInstType_0::SimdAdd         2254      0.01%     58.11% # Class of committed instruction
system.cpu.commit.committedInstType_0::SimdAddAcc            0      0.00%     58.11% # Class of committed instruction
system.cpu.commit.committedInstType_0::SimdAlu       846525      4.73%     62.84% # Class of committed instruction
system.cpu.commit.committedInstType_0::SimdCmp           12      0.00%     62.84% # Class of committed instruction
system.cpu.commit.committedInstType_0::SimdCvt         4802      0.03%     62.86% # Class of committed instruction
system.cpu.commit.committedInstType_0::SimdMisc       846618      4.73%     67.59% # Class of committed instruction
system.cpu.commit.committedInstType_0::SimdMult           64      0.00%     67.59% # Class of committed instruction
system.cpu.commit.committedInstType_0::SimdMultAcc            0      0.00%     67.59% # Class of committed instruction
system.cpu.commit.committedInstType_0::SimdShift          956      0.01%     67.60% # Class of committed instruction
system.cpu.commit.committedInstType_0::SimdShiftAcc            0      0.00%     67.60% # Class of committed instruction
system.cpu.commit.committedInstType_0::SimdDiv            0      0.00%     67.60% # Class of committed instruction
system.cpu.commit.committedInstType_0::SimdSqrt            0      0.00%     67.60% # Class of committed instruction
system.cpu.commit.committedInstType_0::SimdFloatAdd      1404985      7.84%     75.44% # Class of committed instruction
system.cpu.commit.committedInstType_0::SimdFloatAlu            0      0.00%     75.44% # Class of committed instruction
system.cpu.commit.committedInstType_0::SimdFloatCmp            0      0.00%     75.44% # Class of committed instruction
system.cpu.commit.committedInstType_0::SimdFloatCvt       702536      3.92%     79.36% # Class of committed instruction
system.cpu.commit.committedInstType_0::SimdFloatDiv            2      0.00%     79.36% # Class of committed instruction
system.cpu.commit.committedInstType_0::SimdFloatMisc            0      0.00%     79.36% # Class of committed instruction
system.cpu.commit.committedInstType_0::SimdFloatMult       983477      5.49%     84.85% # Class of committed instruction
system.cpu.commit.committedInstType_0::SimdFloatMultAcc            0      0.00%     84.85% # Class of committed instruction
system.cpu.commit.committedInstType_0::SimdFloatSqrt            0      0.00%     84.85% # Class of committed instruction
system.cpu.commit.committedInstType_0::SimdReduceAdd            0      0.00%     84.85% # Class of committed instruction
system.cpu.commit.committedInstType_0::SimdReduceAlu            0      0.00%     84.85% # Class of committed instruction
system.cpu.commit.committedInstType_0::SimdReduceCmp            0      0.00%     84.85% # Class of committed instruction
system.cpu.commit.committedInstType_0::SimdFloatReduceAdd            0      0.00%     84.85% # Class of committed instruction
system.cpu.commit.committedInstType_0::SimdFloatReduceCmp            0      0.00%     84.85% # Class of committed instruction
system.cpu.commit.committedInstType_0::SimdAes            0      0.00%     84.85% # Class of committed instruction
system.cpu.commit.committedInstType_0::SimdAesMix            0      0.00%     84.85% # Class of committed instruction
system.cpu.commit.committedInstType_0::SimdSha1Hash            0      0.00%     84.85% # Class of committed instruction
system.cpu.commit.committedInstType_0::SimdSha1Hash2            0      0.00%     84.85% # Class of committed instruction
system.cpu.commit.committedInstType_0::SimdSha256Hash            0      0.00%     84.85% # Class of committed instruction
system.cpu.commit.committedInstType_0::SimdSha256Hash2            0      0.00%     84.85% # Class of committed instruction
system.cpu.commit.committedInstType_0::SimdShaSigma2            0      0.00%     84.85% # Class of committed instruction
system.cpu.commit.committedInstType_0::SimdShaSigma3            0      0.00%     84.85% # Class of committed instruction
system.cpu.commit.committedInstType_0::SimdPredAlu            0      0.00%     84.85% # Class of committed instruction
system.cpu.commit.committedInstType_0::MemRead       692039      3.86%     88.72% # Class of committed instruction
system.cpu.commit.committedInstType_0::MemWrite       463873      2.59%     91.31% # Class of committed instruction
system.cpu.commit.committedInstType_0::FloatMemRead      1550610      8.66%     99.96% # Class of committed instruction
system.cpu.commit.committedInstType_0::FloatMemWrite         6407      0.04%    100.00% # Class of committed instruction
system.cpu.commit.committedInstType_0::IprAccess            0      0.00%    100.00% # Class of committed instruction
system.cpu.commit.committedInstType_0::InstPrefetch            0      0.00%    100.00% # Class of committed instruction
system.cpu.commit.committedInstType_0::total     17911641                       # Class of committed instruction
system.cpu.commit.commitEligibleSamples        913222                       # number cycles where commit BW limit reached
system.cpu.dcache.demand_hits::.cpu.data      2600340                       # number of demand (read+write) hits
system.cpu.dcache.demand_hits::total          2600340                       # number of demand (read+write) hits
system.cpu.dcache.overall_hits::.cpu.data      2600340                       # number of overall hits
system.cpu.dcache.overall_hits::total         2600340                       # number of overall hits
system.cpu.dcache.demand_misses::.cpu.data        26594                       # number of demand (read+write) misses
system.cpu.dcache.demand_misses::total          26594                       # number of demand (read+write) misses
system.cpu.dcache.overall_misses::.cpu.data        26594                       # number of overall misses
system.cpu.dcache.overall_misses::total         26594                       # number of overall misses
system.cpu.dcache.demand_miss_latency::.cpu.data   1561335994                       # number of demand (read+write) miss cycles
system.cpu.dcache.demand_miss_latency::total   1561335994                       # number of demand (read+write) miss cycles
system.cpu.dcache.overall_miss_latency::.cpu.data   1561335994                       # number of overall miss cycles
system.cpu.dcache.overall_miss_latency::total   1561335994                       # number of overall miss cycles
system.cpu.dcache.demand_accesses::.cpu.data      2626934                       # number of demand (read+write) accesses
system.cpu.dcache.demand_accesses::total      2626934                       # number of demand (read+write) accesses
system.cpu.dcache.overall_accesses::.cpu.data      2626934                       # number of overall (read+write) accesses
system.cpu.dcache.overall_accesses::total      2626934                       # number of overall (read+write) accesses
system.cpu.dcache.demand_miss_rate::.cpu.data     0.010124                       # miss rate for demand accesses
system.cpu.dcache.demand_miss_rate::total     0.010124                       # miss rate for demand accesses
system.cpu.dcache.overall_miss_rate::.cpu.data     0.010124                       # miss rate for overall accesses
system.cpu.dcache.overall_miss_rate::total     0.010124                       # miss rate for overall accesses
system.cpu.dcache.demand_avg_miss_latency::.cpu.data 58710.084756                       # average overall miss latency
system.cpu.dcache.demand_avg_miss_latency::total 58710.084756                       # average overall miss latency
system.cpu.dcache.overall_avg_miss_latency::.cpu.data 58710.084756                       # average overall miss latency
system.cpu.dcache.overall_avg_miss_latency::total 58710.084756                       # average overall miss latency
system.cpu.dcache.blocked_cycles::no_mshrs        20869                       # number of cycles access was blocked
system.cpu.dcache.blocked_cycles::no_targets            4                       # number of cycles access was blocked
system.cpu.dcache.blocked::no_mshrs               497                       # number of cycles access was blocked
system.cpu.dcache.blocked::no_targets               1                       # number of cycles access was blocked
system.cpu.dcache.avg_blocked_cycles::no_mshrs    41.989940                       # average number of cycles each access was blocked
system.cpu.dcache.avg_blocked_cycles::no_targets            4                       # average number of cycles each access was blocked
system.cpu.dcache.writebacks::.writebacks        11022                       # number of writebacks
system.cpu.dcache.writebacks::total             11022                       # number of writebacks
system.cpu.dcache.demand_mshr_hits::.cpu.data        11837                       # number of demand (read+write) MSHR hits
system.cpu.dcache.demand_mshr_hits::total        11837                       # number of demand (read+write) MSHR hits
system.cpu.dcache.overall_mshr_hits::.cpu.data        11837                       # number of overall MSHR hits
system.cpu.dcache.overall_mshr_hits::total        11837                       # number of overall MSHR hits
system.cpu.dcache.demand_mshr_misses::.cpu.data        14757                       # number of demand (read+write) MSHR misses
system.cpu.dcache.demand_mshr_misses::total        14757                       # number of demand (read+write) MSHR misses
system.cpu.dcache.overall_mshr_misses::.cpu.data        14757                       # number of overall MSHR misses
system.cpu.dcache.overall_mshr_misses::total        14757                       # number of overall MSHR misses
system.cpu.dcache.demand_mshr_miss_latency::.cpu.data    948925994                       # number of demand (read+write) MSHR miss cycles
system.cpu.dcache.demand_mshr_miss_latency::total    948925994                       # number of demand (read+write) MSHR miss cycles
system.cpu.dcache.overall_mshr_miss_latency::.cpu.data    948925994                       # number of overall MSHR miss cycles
system.cpu.dcache.overall_mshr_miss_latency::total    948925994                       # number of overall MSHR miss cycles
system.cpu.dcache.demand_mshr_miss_rate::.cpu.data     0.005618                       # mshr miss rate for demand accesses
system.cpu.dcache.demand_mshr_miss_rate::total     0.005618                       # mshr miss rate for demand accesses
system.cpu.dcache.overall_mshr_miss_rate::.cpu.data     0.005618                       # mshr miss rate for overall accesses
system.cpu.dcache.overall_mshr_miss_rate::total     0.005618                       # mshr miss rate for overall accesses
system.cpu.dcache.demand_avg_mshr_miss_latency::.cpu.data 64303.448804                       # average overall mshr miss latency
system.cpu.dcache.demand_avg_mshr_miss_latency::total 64303.448804                       # average overall mshr miss latency
system.cpu.dcache.overall_avg_mshr_miss_latency::.cpu.data 64303.448804                       # average overall mshr miss latency
system.cpu.dcache.overall_avg_mshr_miss_latency::total 64303.448804                       # average overall mshr miss latency
system.cpu.dcache.replacements                  14245                       # number of replacements
system.cpu.dcache.ReadReq_hits::.cpu.data      2140749                       # number of ReadReq hits
system.cpu.dcache.ReadReq_hits::total         2140749                       # number of ReadReq hits
system.cpu.dcache.ReadReq_misses::.cpu.data        15883                       # number of ReadReq misses
system.cpu.dcache.ReadReq_misses::total         15883                       # number of ReadReq misses
system.cpu.dcache.ReadReq_miss_latency::.cpu.data    808473500                       # number of ReadReq miss cycles
system.cpu.dcache.ReadReq_miss_latency::total    808473500                       # number of ReadReq miss cycles
system.cpu.dcache.ReadReq_accesses::.cpu.data      2156632                       # number of ReadReq accesses(hits+misses)
system.cpu.dcache.ReadReq_accesses::total      2156632                       # number of ReadReq accesses(hits+misses)
system.cpu.dcache.ReadReq_miss_rate::.cpu.data     0.007365                       # miss rate for ReadReq accesses
system.cpu.dcache.ReadReq_miss_rate::total     0.007365                       # miss rate for ReadReq accesses
system.cpu.dcache.ReadReq_avg_miss_latency::.cpu.data 50901.813259                       # average ReadReq miss latency
system.cpu.dcache.ReadReq_avg_miss_latency::total 50901.813259                       # average ReadReq miss latency
system.cpu.dcache.ReadReq_mshr_hits::.cpu.data        11832                       # number of ReadReq MSHR hits
system.cpu.dcache.ReadReq_mshr_hits::total        11832                       # number of ReadReq MSHR hits
system.cpu.dcache.ReadReq_mshr_misses::.cpu.data         4051                       # number of ReadReq MSHR misses
system.cpu.dcache.ReadReq_mshr_misses::total         4051                       # number of ReadReq MSHR misses
system.cpu.dcache.ReadReq_mshr_miss_latency::.cpu.data    207020500                       # number of ReadReq MSHR miss cycles
system.cpu.dcache.ReadReq_mshr_miss_latency::total    207020500                       # number of ReadReq MSHR miss cycles
system.cpu.dcache.ReadReq_mshr_miss_rate::.cpu.data     0.001878                       # mshr miss rate for ReadReq accesses
system.cpu.dcache.ReadReq_mshr_miss_rate::total     0.001878                       # mshr miss rate for ReadReq accesses
system.cpu.dcache.ReadReq_avg_mshr_miss_latency::.cpu.data 51103.554678                       # average ReadReq mshr miss latency
system.cpu.dcache.ReadReq_avg_mshr_miss_latency::total 51103.554678                       # average ReadReq mshr miss latency
system.cpu.dcache.WriteReq_hits::.cpu.data       459591                       # number of WriteReq hits
system.cpu.dcache.WriteReq_hits::total         459591                       # number of WriteReq hits
system.cpu.dcache.WriteReq_misses::.cpu.data        10711                       # number of WriteReq misses
system.cpu.dcache.WriteReq_misses::total        10711                       # number of WriteReq misses
system.cpu.dcache.WriteReq_miss_latency::.cpu.data    752862494                       # number of WriteReq miss cycles
system.cpu.dcache.WriteReq_miss_latency::total    752862494                       # number of WriteReq miss cycles
system.cpu.dcache.WriteReq_accesses::.cpu.data       470302                       # number of WriteReq accesses(hits+misses)
system.cpu.dcache.WriteReq_accesses::total       470302                       # number of WriteReq accesses(hits+misses)
system.cpu.dcache.WriteReq_miss_rate::.cpu.data     0.022775                       # miss rate for WriteReq accesses
system.cpu.dcache.WriteReq_miss_rate::total     0.022775                       # miss rate for WriteReq accesses
system.cpu.dcache.WriteReq_avg_miss_latency::.cpu.data 70288.721315                       # average WriteReq miss latency
system.cpu.dcache.WriteReq_avg_miss_latency::total 70288.721315                       # average WriteReq miss latency
system.cpu.dcache.WriteReq_mshr_hits::.cpu.data            5                       # number of WriteReq MSHR hits
system.cpu.dcache.WriteReq_mshr_hits::total            5                       # number of WriteReq MSHR hits
system.cpu.dcache.WriteReq_mshr_misses::.cpu.data        10706                       # number of WriteReq MSHR misses
system.cpu.dcache.WriteReq_mshr_misses::total        10706                       # number of WriteReq MSHR misses
system.cpu.dcache.WriteReq_mshr_miss_latency::.cpu.data    741905494                       # number of WriteReq MSHR miss cycles
system.cpu.dcache.WriteReq_mshr_miss_latency::total    741905494                       # number of WriteReq MSHR miss cycles
system.cpu.dcache.WriteReq_mshr_miss_rate::.cpu.data     0.022764                       # mshr miss rate for WriteReq accesses
system.cpu.dcache.WriteReq_mshr_miss_rate::total     0.022764                       # mshr miss rate for WriteReq accesses
system.cpu.dcache.WriteReq_avg_mshr_miss_latency::.cpu.data 69298.103307                       # average WriteReq mshr miss latency
system.cpu.dcache.WriteReq_avg_mshr_miss_latency::total 69298.103307                       # average WriteReq mshr miss latency
system.cpu.dcache.power_state.pwrStateResidencyTicks::UNDEFINED   2963517000                       # Cumulative time (in ticks) in various power states
system.cpu.dcache.tags.tagsinuse           506.621203                       # Cycle average of tags in use
system.cpu.dcache.tags.total_refs             2615097                       # Total number of references to valid blocks.
system.cpu.dcache.tags.sampled_refs             14757                       # Sample count of references to valid blocks.
system.cpu.dcache.tags.avg_refs            177.210612                       # Average number of references to valid blocks.
system.cpu.dcache.tags.warmup_cycle            163000                       # Cycle when the warmup percentage was hit.
system.cpu.dcache.tags.occ_blocks::.cpu.data   506.621203                       # Average occupied blocks per requestor
system.cpu.dcache.tags.occ_percent::.cpu.data     0.989495                       # Average percentage of cache occupancy
system.cpu.dcache.tags.occ_percent::total     0.989495                       # Average percentage of cache occupancy
system.cpu.dcache.tags.occ_task_id_blocks::1024          512                       # Occupied blocks per task id
system.cpu.dcache.tags.age_task_id_blocks_1024::0           38                       # Occupied blocks per task id
system.cpu.dcache.tags.age_task_id_blocks_1024::1          326                       # Occupied blocks per task id
system.cpu.dcache.tags.age_task_id_blocks_1024::2          140                       # Occupied blocks per task id
system.cpu.dcache.tags.age_task_id_blocks_1024::3            8                       # Occupied blocks per task id
system.cpu.dcache.tags.occ_task_id_percent::1024            1                       # Percentage of cache occupancy per task id
system.cpu.dcache.tags.tag_accesses           5268625                       # Number of tag accesses
system.cpu.dcache.tags.data_accesses          5268625                       # Number of data accesses
system.cpu.dcache.tags.power_state.pwrStateResidencyTicks::UNDEFINED   2963517000                       # Cumulative time (in ticks) in various power states
system.cpu.decode.idleCycles                   716350                       # Number of cycles decode is idle
system.cpu.decode.blockedCycles               2639290                       # Number of cycles decode is blocked
system.cpu.decode.runCycles                   1108245                       # Number of cycles decode is running
system.cpu.decode.unblockCycles               1302967                       # Number of cycles decode is unblocking
system.cpu.decode.squashCycles                  17566                       # Number of cycles decode is squashing
system.cpu.decode.branchResolved               379259                       # Number of times decode resolved a  branch
system.cpu.decode.branchMispred                  1572                       # Number of times decode detected a branch misprediction
system.cpu.decode.decodedInsts               18984058                       # Number of instructions handled by decode
system.cpu.decode.squashedInsts                  7403                       # Number of squashed instructions handled by decode
system.cpu.dtb.rdAccesses                     2305186                       # TLB accesses on read requests
system.cpu.dtb.wrAccesses                      486067                       # TLB accesses on write requests
system.cpu.dtb.rdMisses                           620                       # TLB misses on read requests
system.cpu.dtb.wrMisses                           678                       # TLB misses on write requests
system.cpu.dtb.walker.power_state.pwrStateResidencyTicks::UNDEFINED   2963517000                       # Cumulative time (in ticks) in various power states
system.cpu.dtb_walker_cache.blocked_cycles::no_mshrs            0                       # number of cycles access was blocked
system.cpu.dtb_walker_cache.blocked_cycles::no_targets            0                       # number of cycles access was blocked
system.cpu.dtb_walker_cache.blocked::no_mshrs            0                       # number of cycles access was blocked
system.cpu.dtb_walker_cache.blocked::no_targets            0                       # number of cycles access was blocked
system.cpu.dtb_walker_cache.avg_blocked_cycles::no_mshrs          nan                       # average number of cycles each access was blocked
system.cpu.dtb_walker_cache.avg_blocked_cycles::no_targets          nan                       # average number of cycles each access was blocked
system.cpu.dtb_walker_cache.replacements            0                       # number of replacements
system.cpu.dtb_walker_cache.power_state.pwrStateResidencyTicks::UNDEFINED   2963517000                       # Cumulative time (in ticks) in various power states
system.cpu.dtb_walker_cache.tags.tagsinuse            0                       # Cycle average of tags in use
system.cpu.dtb_walker_cache.tags.total_refs            0                       # Total number of references to valid blocks.
system.cpu.dtb_walker_cache.tags.sampled_refs            0                       # Sample count of references to valid blocks.
system.cpu.dtb_walker_cache.tags.avg_refs          nan                       # Average number of references to valid blocks.
system.cpu.dtb_walker_cache.tags.warmup_cycle            0                       # Cycle when the warmup percentage was hit.
system.cpu.dtb_walker_cache.tags.tag_accesses            0                       # Number of tag accesses
system.cpu.dtb_walker_cache.tags.data_accesses            0                       # Number of data accesses
system.cpu.dtb_walker_cache.tags.power_state.pwrStateResidencyTicks::UNDEFINED   2963517000                       # Cumulative time (in ticks) in various power states
system.cpu.fetch.icacheStallCycles            1334775                       # Number of cycles fetch is stalled on an Icache miss
system.cpu.fetch.insts                       10538535                       # Number of instructions fetch has processed
system.cpu.fetch.branches                     1230490                       # Number of branches that fetch encountered
system.cpu.fetch.predictedBranches             684439                       # Number of branches that fetch has predicted taken
system.cpu.fetch.cycles                       4426821                       # Number of cycles fetch has run and was not squashing or blocked
system.cpu.fetch.squashCycles                   38174                       # Number of cycles fetch has spent squashing
system.cpu.fetch.miscStallCycles                  456                       # Number of cycles fetch has spent waiting on interrupts,or bad addresses, or out of MSHRs
system.cpu.fetch.pendingTrapStallCycles          3259                       # Number of stall cycles due to pending traps
system.cpu.fetch.pendingQuiesceStallCycles            9                       # Number of stall cycles due to pending quiesce instructions
system.cpu.fetch.icacheWaitRetryStallCycles           11                       # Number of stall cycles due to full MSHR
system.cpu.fetch.cacheLines                   1260393                       # Number of cache lines fetched
system.cpu.fetch.icacheSquashes                  4749                       # Number of outstanding Icache misses that were squashed
system.cpu.fetch.nisnDist::samples            5784418                       # Number of instructions fetched each cycle (Total)
system.cpu.fetch.nisnDist::mean              3.337105                       # Number of instructions fetched each cycle (Total)
system.cpu.fetch.nisnDist::stdev             3.563568                       # Number of instructions fetched each cycle (Total)
system.cpu.fetch.nisnDist::underflows               0      0.00%      0.00% # Number of instructions fetched each cycle (Total)
system.cpu.fetch.nisnDist::0                  2567330     44.38%     44.38% # Number of instructions fetched each cycle (Total)
system.cpu.fetch.nisnDist::1                   266662      4.61%     48.99% # Number of instructions fetched each cycle (Total)
system.cpu.fetch.nisnDist::2                   376899      6.52%     55.51% # Number of instructions fetched each cycle (Total)
system.cpu.fetch.nisnDist::3                   117059      2.02%     57.53% # Number of instructions fetched each cycle (Total)
system.cpu.fetch.nisnDist::4                   225950      3.91%     61.44% # Number of instructions fetched each cycle (Total)
system.cpu.fetch.nisnDist::5                   123315      2.13%     63.57% # Number of instructions fetched each cycle (Total)
system.cpu.fetch.nisnDist::6                    91392      1.58%     65.15% # Number of instructions fetched each cycle (Total)
system.cpu.fetch.nisnDist::7                   263641      4.56%     69.71% # Number of instructions fetched each cycle (Total)
system.cpu.fetch.nisnDist::8                  1752170     30.29%    100.00% # Number of instructions fetched each cycle (Total)
system.cpu.fetch.nisnDist::overflows                0      0.00%    100.00% # Number of instructions fetched each cycle (Total)
system.cpu.fetch.nisnDist::min_value                0                       # Number of instructions fetched each cycle (Total)
system.cpu.fetch.nisnDist::max_value                8                       # Number of instructions fetched each cycle (Total)
system.cpu.fetch.nisnDist::total              5784418                       # Number of instructions fetched each cycle (Total)
system.cpu.fetch.branchRate                  0.207606                       # Number of branch fetches per cycle
system.cpu.fetch.rate                        1.778045                       # Number of inst fetches per cycle
system.cpu.icache.demand_hits::.cpu.inst      1257135                       # number of demand (read+write) hits
system.cpu.icache.demand_hits::total          1257135                       # number of demand (read+write) hits
system.cpu.icache.overall_hits::.cpu.inst      1257135                       # number of overall hits
system.cpu.icache.overall_hits::total         1257135                       # number of overall hits
system.cpu.icache.demand_misses::.cpu.inst         3258                       # number of demand (read+write) misses
system.cpu.icache.demand_misses::total           3258                       # number of demand (read+write) misses
system.cpu.icache.overall_misses::.cpu.inst         3258                       # number of overall misses
system.cpu.icache.overall_misses::total          3258                       # number of overall misses
system.cpu.icache.demand_miss_latency::.cpu.inst    193712500                       # number of demand (read+write) miss cycles
system.cpu.icache.demand_miss_latency::total    193712500                       # number of demand (read+write) miss cycles
system.cpu.icache.overall_miss_latency::.cpu.inst    193712500                       # number of overall miss cycles
system.cpu.icache.overall_miss_latency::total    193712500                       # number of overall miss cycles
system.cpu.icache.demand_accesses::.cpu.inst      1260393                       # number of demand (read+write) accesses
system.cpu.icache.demand_accesses::total      1260393                       # number of demand (read+write) accesses
system.cpu.icache.overall_accesses::.cpu.inst      1260393                       # number of overall (read+write) accesses
system.cpu.icache.overall_accesses::total      1260393                       # number of overall (read+write) accesses
system.cpu.icache.demand_miss_rate::.cpu.inst     0.002585                       # miss rate for demand accesses
system.cpu.icache.demand_miss_rate::total     0.002585                       # miss rate for demand accesses
system.cpu.icache.overall_miss_rate::.cpu.inst     0.002585                       # miss rate for overall accesses
system.cpu.icache.overall_miss_rate::total     0.002585                       # miss rate for overall accesses
system.cpu.icache.demand_avg_miss_latency::.cpu.inst 59457.489257                       # average overall miss latency
system.cpu.icache.demand_avg_miss_latency::total 59457.489257                       # average overall miss latency
system.cpu.icache.overall_avg_miss_latency::.cpu.inst 59457.489257                       # average overall miss latency
system.cpu.icache.overall_avg_miss_latency::total 59457.489257                       # average overall miss latency
system.cpu.icache.blocked_cycles::no_mshrs          570                       # number of cycles access was blocked
system.cpu.icache.blocked_cycles::no_targets            0                       # number of cycles access was blocked
system.cpu.icache.blocked::no_mshrs                10                       # number of cycles access was blocked
system.cpu.icache.blocked::no_targets               0                       # number of cycles access was blocked
system.cpu.icache.avg_blocked_cycles::no_mshrs           57                       # average number of cycles each access was blocked
system.cpu.icache.avg_blocked_cycles::no_targets          nan                       # average number of cycles each access was blocked
system.cpu.icache.writebacks::.writebacks         2067                       # number of writebacks
system.cpu.icache.writebacks::total              2067                       # number of writebacks
system.cpu.icache.demand_mshr_hits::.cpu.inst          679                       # number of demand (read+write) MSHR hits
system.cpu.icache.demand_mshr_hits::total          679                       # number of demand (read+write) MSHR hits
system.cpu.icache.overall_mshr_hits::.cpu.inst          679                       # number of overall MSHR hits
system.cpu.icache.overall_mshr_hits::total          679                       # number of overall MSHR hits
system.cpu.icache.demand_mshr_misses::.cpu.inst         2579                       # number of demand (read+write) MSHR misses
system.cpu.icache.demand_mshr_misses::total         2579                       # number of demand (read+write) MSHR misses
system.cpu.icache.overall_mshr_misses::.cpu.inst         2579                       # number of overall MSHR misses
system.cpu.icache.overall_mshr_misses::total         2579                       # number of overall MSHR misses
system.cpu.icache.demand_mshr_miss_latency::.cpu.inst    154762500                       # number of demand (read+write) MSHR miss cycles
system.cpu.icache.demand_mshr_miss_latency::total    154762500                       # number of demand (read+write) MSHR miss cycles
system.cpu.icache.overall_mshr_miss_latency::.cpu.inst    154762500                       # number of overall MSHR miss cycles
system.cpu.icache.overall_mshr_miss_latency::total    154762500                       # number of overall MSHR miss cycles
system.cpu.icache.demand_mshr_miss_rate::.cpu.inst     0.002046                       # mshr miss rate for demand accesses
system.cpu.icache.demand_mshr_miss_rate::total     0.002046                       # mshr miss rate for demand accesses
system.cpu.icache.overall_mshr_miss_rate::.cpu.inst     0.002046                       # mshr miss rate for overall accesses
system.cpu.icache.overall_mshr_miss_rate::total     0.002046                       # mshr miss rate for overall accesses
system.cpu.icache.demand_avg_mshr_miss_latency::.cpu.inst 60008.724312                       # average overall mshr miss latency
system.cpu.icache.demand_avg_mshr_miss_latency::total 60008.724312                       # average overall mshr miss latency
system.cpu.icache.overall_avg_mshr_miss_latency::.cpu.inst 60008.724312                       # average overall mshr miss latency
system.cpu.icache.overall_avg_mshr_miss_latency::total 60008.724312                       # average overall mshr miss latency
system.cpu.icache.replacements                   2067                       # number of replacements
system.cpu.icache.ReadReq_hits::.cpu.inst      1257135                       # number of ReadReq hits
system.cpu.icache.ReadReq_hits::total         1257135                       # number of ReadReq hits
system.cpu.icache.ReadReq_misses::.cpu.inst         3258                       # number of ReadReq misses
system.cpu.icache.ReadReq_misses::total          3258                       # number of ReadReq misses
system.cpu.icache.ReadReq_miss_latency::.cpu.inst    193712500                       # number of ReadReq miss cycles
system.cpu.icache.ReadReq_miss_latency::total    193712500                       # number of ReadReq miss cycles
system.cpu.icache.ReadReq_accesses::.cpu.inst      1260393                       # number of ReadReq accesses(hits+misses)
system.cpu.icache.ReadReq_accesses::total      1260393                       # number of ReadReq accesses(hits+misses)
system.cpu.icache.ReadReq_miss_rate::.cpu.inst     0.002585                       # miss rate for ReadReq accesses
system.cpu.icache.ReadReq_miss_rate::total     0.002585                       # miss rate for ReadReq accesses
system.cpu.icache.ReadReq_avg_miss_latency::.cpu.inst 59457.489257                       # average ReadReq miss latency
system.cpu.icache.ReadReq_avg_miss_latency::total 59457.489257                       # average ReadReq miss latency
system.cpu.icache.ReadReq_mshr_hits::.cpu.inst          679                       # number of ReadReq MSHR hits
system.cpu.icache.ReadReq_mshr_hits::total          679                       # number of ReadReq MSHR hits
system.cpu.icache.ReadReq_mshr_misses::.cpu.inst         2579                       # number of ReadReq MSHR misses
system.cpu.icache.ReadReq_mshr_misses::total         2579                       # number of ReadReq MSHR misses
system.cpu.icache.ReadReq_mshr_miss_latency::.cpu.inst    154762500                       # number of ReadReq MSHR miss cycles
system.cpu.icache.ReadReq_mshr_miss_latency::total    154762500                       # number of ReadReq MSHR miss cycles
system.cpu.icache.ReadReq_mshr_miss_rate::.cpu.inst     0.002046                       # mshr miss rate for ReadReq accesses
system.cpu.icache.ReadReq_mshr_miss_rate::total     0.002046                       # mshr miss rate for ReadReq accesses
system.cpu.icache.ReadReq_avg_mshr_miss_latency::.cpu.inst 60008.724312                       # average ReadReq mshr miss latency
system.cpu.icache.ReadReq_avg_mshr_miss_latency::total 60008.724312                       # average ReadReq mshr miss latency
system.cpu.icache.power_state.pwrStateResidencyTicks::UNDEFINED   2963517000                       # Cumulative time (in ticks) in various power states
system.cpu.icache.tags.tagsinuse           505.113624                       # Cycle average of tags in use
system.cpu.icache.tags.total_refs             1259714                       # Total number of references to valid blocks.
system.cpu.icache.tags.sampled_refs              2579                       # Sample count of references to valid blocks.
system.cpu.icache.tags.avg_refs            488.450562                       # Average number of references to valid blocks.
system.cpu.icache.tags.warmup_cycle             79500                       # Cycle when the warmup percentage was hit.
system.cpu.icache.tags.occ_blocks::.cpu.inst   505.113624                       # Average occupied blocks per requestor
system.cpu.icache.tags.occ_percent::.cpu.inst     0.986550                       # Average percentage of cache occupancy
system.cpu.icache.tags.occ_percent::total     0.986550                       # Average percentage of cache occupancy
system.cpu.icache.tags.occ_task_id_blocks::1024          511                       # Occupied blocks per task id
system.cpu.icache.tags.age_task_id_blocks_1024::2            2                       # Occupied blocks per task id
system.cpu.icache.tags.age_task_id_blocks_1024::3          509                       # Occupied blocks per task id
system.cpu.icache.tags.occ_task_id_percent::1024     0.998047                       # Percentage of cache occupancy per task id
system.cpu.icache.tags.tag_accesses           2523365                       # Number of tag accesses
system.cpu.icache.tags.data_accesses          2523365                       # Number of data accesses
system.cpu.icache.tags.power_state.pwrStateResidencyTicks::UNDEFINED   2963517000                       # Cumulative time (in ticks) in various power states
system.cpu.interrupts.clk_domain.clock           8000                       # Clock period in ticks
system.cpu.itb.rdAccesses                           0                       # TLB accesses on read requests
system.cpu.itb.wrAccesses                     1260893                       # TLB accesses on write requests
system.cpu.itb.rdMisses                             0                       # TLB misses on read requests
system.cpu.itb.wrMisses                           724                       # TLB misses on write requests
system.cpu.itb.walker.power_state.pwrStateResidencyTicks::UNDEFINED   2963517000                       # Cumulative time (in ticks) in various power states
system.cpu.itb_walker_cache.blocked_cycles::no_mshrs            0                       # number of cycles access was blocked
system.cpu.itb_walker_cache.blocked_cycles::no_targets            0                       # number of cycles access was blocked
system.cpu.itb_walker_cache.blocked::no_mshrs            0                       # number of cycles access was blocked
system.cpu.itb_walker_cache.blocked::no_targets            0                       # number of cycles access was blocked
system.cpu.itb_walker_cache.avg_blocked_cycles::no_mshrs          nan                       # average number of cycles each access was blocked
system.cpu.itb_walker_cache.avg_blocked_cycles::no_targets          nan                       # average number of cycles each access was blocked
system.cpu.itb_walker_cache.replacements            0                       # number of replacements
system.cpu.itb_walker_cache.power_state.pwrStateResidencyTicks::UNDEFINED   2963517000                       # Cumulative time (in ticks) in various power states
system.cpu.itb_walker_cache.tags.tagsinuse            0                       # Cycle average of tags in use
system.cpu.itb_walker_cache.tags.total_refs            0                       # Total number of references to valid blocks.
system.cpu.itb_walker_cache.tags.sampled_refs            0                       # Sample count of references to valid blocks.
system.cpu.itb_walker_cache.tags.avg_refs          nan                       # Average number of references to valid blocks.
system.cpu.itb_walker_cache.tags.warmup_cycle            0                       # Cycle when the warmup percentage was hit.
system.cpu.itb_walker_cache.tags.tag_accesses            0                       # Number of tag accesses
system.cpu.itb_walker_cache.tags.data_accesses            0                       # Number of data accesses
system.cpu.itb_walker_cache.tags.power_state.pwrStateResidencyTicks::UNDEFINED   2963517000                       # Cumulative time (in ticks) in various power states
system.cpu.lsq0.forwLoads                      148031                       # Number of loads that had data forwarded from stores
system.cpu.lsq0.squashedLoads                   82982                       # Number of loads squashed
system.cpu.lsq0.ignoredResponses                   77                       # Number of memory responses ignored because the instruction is squashed
system.cpu.lsq0.memOrderViolation                 151                       # Number of memory ordering violations
system.cpu.lsq0.squashedStores                  28367                       # Number of stores squashed
system.cpu.lsq0.rescheduledLoads                   32                       # Number of loads that were rescheduled
system.cpu.lsq0.blockedByCache                    386                       # Number of times an access to memory failed due to the cache being blocked
system.cpu.power_state.pwrStateResidencyTicks::ON   2963517000                       # Cumulative time (in ticks) in various power states
system.cpu.rename.squashCycles                  17566                       # Number of cycles rename is squashing
system.cpu.rename.idleCycles                  1104820                       # Number of cycles rename is idle
system.cpu.rename.blockCycles                  309396                       # Number of cycles rename is blocking
system.cpu.rename.serializeStallCycles           2984                       # count of cycles rename stalledfor serializing inst
system.cpu.rename.runCycles                   2014690                       # Number of cycles rename is running
system.cpu.rename.unblockCycles               2334962                       # Number of cycles rename is unblocking
system.cpu.rename.renamedInsts               18898547                       # Number of instructions processed by rename
system.cpu.rename.ROBFullEvents                  3195                       # Number of times rename has blocked due to ROB full
system.cpu.rename.IQFullEvents                1873075                       # Number of times rename has blocked due to IQ full
system.cpu.rename.LQFullEvents                   1275                       # Number of times rename has blocked due to LQ full
system.cpu.rename.SQFullEvents                 159042                       # Number of times rename has blocked due to SQ full
system.cpu.rename.fullRegistersEvents              19                       # Number of times there has been no free registers
system.cpu.rename.renamedOperands            21861877                       # Number of destination operands rename has renamed
system.cpu.rename.lookups                    44301583                       # Number of register rename lookups that rename has made
system.cpu.rename.intLookups                 20218553                       # Number of integer rename lookups
system.cpu.rename.fpLookups                  12335204                       # Number of floating rename lookups
system.cpu.rename.committedMaps              20388148                       # Number of HB maps that are committed
system.cpu.rename.undoneMaps                  1473580                       # Number of HB maps that are undone due to squashing
system.cpu.rename.serializing                      41                       # count of serializing insts renamed
system.cpu.rename.tempSerializing                  24                       # count of temporary serializing insts renamed
system.cpu.rename.skidInsts                   5323051                       # count of insts added to the skid buffer
system.cpu.rob.reads                         23515902                       # The number of ROB reads
system.cpu.rob.writes                        37656710                       # The number of ROB writes
system.cpu.thread_0.numInsts                 10000000                       # Number of Instructions committed
system.cpu.thread_0.numOps                   17911641                       # Number of Ops committed
system.cpu.thread_0.numMemRefs                      0                       # Number of Memory References
system.cpu_clk_domain.clock                       500                       # Clock period in ticks
system.cpu_voltage_domain.voltage                   1                       # Voltage in Volts
system.l2.demand_hits::.cpu.inst                  451                       # number of demand (read+write) hits
system.l2.demand_hits::.cpu.data                 1709                       # number of demand (read+write) hits
system.l2.demand_hits::total                     2160                       # number of demand (read+write) hits
system.l2.overall_hits::.cpu.inst                 451                       # number of overall hits
system.l2.overall_hits::.cpu.data                1709                       # number of overall hits
system.l2.overall_hits::total                    2160                       # number of overall hits
system.l2.demand_misses::.cpu.inst               2125                       # number of demand (read+write) misses
system.l2.demand_misses::.cpu.data              13048                       # number of demand (read+write) misses
system.l2.demand_misses::total                  15173                       # number of demand (read+write) misses
system.l2.overall_misses::.cpu.inst              2125                       # number of overall misses
system.l2.overall_misses::.cpu.data             13048                       # number of overall misses
system.l2.overall_misses::total                 15173                       # number of overall misses
system.l2.demand_miss_latency::.cpu.inst    146043500                       # number of demand (read+write) miss cycles
system.l2.demand_miss_latency::.cpu.data    908449500                       # number of demand (read+write) miss cycles
system.l2.demand_miss_latency::total       1054493000                       # number of demand (read+write) miss cycles
system.l2.overall_miss_latency::.cpu.inst    146043500                       # number of overall miss cycles
system.l2.overall_miss_latency::.cpu.data    908449500                       # number of overall miss cycles
system.l2.overall_miss_latency::total      1054493000                       # number of overall miss cycles
system.l2.demand_accesses::.cpu.inst             2576                       # number of demand (read+write) accesses
system.l2.demand_accesses::.cpu.data            14757                       # number of demand (read+write) accesses
system.l2.demand_accesses::total                17333                       # number of demand (read+write) accesses
system.l2.overall_accesses::.cpu.inst            2576                       # number of overall (read+write) accesses
system.l2.overall_accesses::.cpu.data           14757                       # number of overall (read+write) accesses
system.l2.overall_accesses::total               17333                       # number of overall (read+write) accesses
system.l2.demand_miss_rate::.cpu.inst        0.824922                       # miss rate for demand accesses
system.l2.demand_miss_rate::.cpu.data        0.884191                       # miss rate for demand accesses
system.l2.demand_miss_rate::total            0.875382                       # miss rate for demand accesses
system.l2.overall_miss_rate::.cpu.inst       0.824922                       # miss rate for overall accesses
system.l2.overall_miss_rate::.cpu.data       0.884191                       # miss rate for overall accesses
system.l2.overall_miss_rate::total           0.875382                       # miss rate for overall accesses
system.l2.demand_avg_miss_latency::.cpu.inst 68726.352941                       # average overall miss latency
system.l2.demand_avg_miss_latency::.cpu.data 69623.658798                       # average overall miss latency
system.l2.demand_avg_miss_latency::total 69497.989850                       # average overall miss latency
system.l2.overall_avg_miss_latency::.cpu.inst 68726.352941                       # average overall miss latency
system.l2.overall_avg_miss_latency::.cpu.data 69623.658798                       # average overall miss latency
[...]
system.mem_ctrls.dram.bw_total::.cpu.data    281784110                       # Total bandwidth to/from this memory (bytes/s)
system.mem_ctrls.dram.bw_total::total       378944342                       # Total bandwidth to/from this memory (bytes/s)
system.mem_ctrls.dram.readBursts                15167                       # Number of DRAM read bursts
system.mem_ctrls.dram.writeBursts                2356                       # Number of DRAM write bursts
system.mem_ctrls.dram.perBankRdBursts::0         1136                       # Per bank write bursts
system.mem_ctrls.dram.perBankRdBursts::1          959                       # Per bank write bursts
system.mem_ctrls.dram.perBankRdBursts::2          821                       # Per bank write bursts
system.mem_ctrls.dram.perBankRdBursts::3          868                       # Per bank write bursts
system.mem_ctrls.dram.perBankRdBursts::4          974                       # Per bank write bursts
system.mem_ctrls.dram.perBankRdBursts::5          960                       # Per bank write bursts
system.mem_ctrls.dram.perBankRdBursts::6         1013                       # Per bank write bursts
system.mem_ctrls.dram.perBankRdBursts::7          953                       # Per bank write bursts
system.mem_ctrls.dram.perBankRdBursts::8          957                       # Per bank write bursts
system.mem_ctrls.dram.perBankRdBursts::9          905                       # Per bank write bursts
system.mem_ctrls.dram.perBankRdBursts::10          791                       # Per bank write bursts
system.mem_ctrls.dram.perBankRdBursts::11         1007                       # Per bank write bursts
system.mem_ctrls.dram.perBankRdBursts::12          843                       # Per bank write bursts
system.mem_ctrls.dram.perBankRdBursts::13          881                       # Per bank write bursts
system.mem_ctrls.dram.perBankRdBursts::14         1055                       # Per bank write bursts
system.mem_ctrls.dram.perBankRdBursts::15         1044                       # Per bank write bursts
system.mem_ctrls.dram.perBankWrBursts::0          187                       # Per bank write bursts
system.mem_ctrls.dram.perBankWrBursts::1           63                       # Per bank write bursts
system.mem_ctrls.dram.perBankWrBursts::2           73                       # Per bank write bursts
system.mem_ctrls.dram.perBankWrBursts::3          113                       # Per bank write bursts
system.mem_ctrls.dram.perBankWrBursts::4          108                       # Per bank write bursts
system.mem_ctrls.dram.perBankWrBursts::5          232                       # Per bank write bursts
system.mem_ctrls.dram.perBankWrBursts::6          248                       # Per bank write bursts
system.mem_ctrls.dram.perBankWrBursts::7          181                       # Per bank write bursts
system.mem_ctrls.dram.perBankWrBursts::8          138                       # Per bank write bursts
system.mem_ctrls.dram.perBankWrBursts::9           68                       # Per bank write bursts
system.mem_ctrls.dram.perBankWrBursts::10          112                       # Per bank write bursts
system.mem_ctrls.dram.perBankWrBursts::11          153                       # Per bank write bursts
system.mem_ctrls.dram.perBankWrBursts::12           21                       # Per bank write bursts
system.mem_ctrls.dram.perBankWrBursts::13          138                       # Per bank write bursts
system.mem_ctrls.dram.perBankWrBursts::14          330                       # Per bank write bursts
system.mem_ctrls.dram.perBankWrBursts::15          191                       # Per bank write bursts
system.mem_ctrls.dram.totQLat               114311500                       # Total ticks spent queuing
system.mem_ctrls.dram.totBusLat              75835000                       # Total ticks spent in databus transfers
system.mem_ctrls.dram.totMemAccLat          398692750                       # Total ticks spent from burst creation until serviced by the DRAM
system.mem_ctrls.dram.avgQLat                 7536.86                       # Average queueing delay per DRAM burst
system.mem_ctrls.dram.avgBusLat               5000.00                       # Average bus latency per DRAM burst
system.mem_ctrls.dram.avgMemAccLat           26286.86                       # Average memory access latency per DRAM burst
system.mem_ctrls.dram.readRowHits               13179                       # Number of row buffer hits during reads
system.mem_ctrls.dram.writeRowHits               1955                       # Number of row buffer hits during writes
system.mem_ctrls.dram.readRowHitRate            86.89                       # Row buffer hit rate for reads
system.mem_ctrls.dram.writeRowHitRate           82.98                       # Row buffer hit rate for writes
system.mem_ctrls.dram.bytesPerActivate::samples         2387                       # Bytes accessed per row activation
system.mem_ctrls.dram.bytesPerActivate::mean   469.610390                       # Bytes accessed per row activation
system.mem_ctrls.dram.bytesPerActivate::gmean   304.781814                       # Bytes accessed per row activation
system.mem_ctrls.dram.bytesPerActivate::stdev   365.633633                       # Bytes accessed per row activation
system.mem_ctrls.dram.bytesPerActivate::0-127          473     19.82%     19.82% # Bytes accessed per row activation
system.mem_ctrls.dram.bytesPerActivate::128-255          464     19.44%     39.25% # Bytes accessed per row activation
system.mem_ctrls.dram.bytesPerActivate::256-383          266     11.14%     50.40% # Bytes accessed per row activation
system.mem_ctrls.dram.bytesPerActivate::384-511          165      6.91%     57.31% # Bytes accessed per row activation
system.mem_ctrls.dram.bytesPerActivate::512-639          152      6.37%     63.68% # Bytes accessed per row activation
system.mem_ctrls.dram.bytesPerActivate::640-767          118      4.94%     68.62% # Bytes accessed per row activation
system.mem_ctrls.dram.bytesPerActivate::768-895           96      4.02%     72.64% # Bytes accessed per row activation
system.mem_ctrls.dram.bytesPerActivate::896-1023          345     14.45%     87.10% # Bytes accessed per row activation
system.mem_ctrls.dram.bytesPerActivate::1024-1151          308     12.90%    100.00% # Bytes accessed per row activation
system.mem_ctrls.dram.bytesPerActivate::total         2387                       # Bytes accessed per row activation
system.mem_ctrls.dram.bytesRead                970688                       # Total number of bytes read from DRAM
system.mem_ctrls.dram.bytesWritten             150784                       # Total number of bytes written to DRAM
system.mem_ctrls.dram.avgRdBW              327.545953                       # Average DRAM read bandwidth in MiBytes/s
system.mem_ctrls.dram.avgWrBW               50.880086                       # Average DRAM write bandwidth in MiBytes/s
system.mem_ctrls.dram.peakBW                 12800.00                       # Theoretical peak bandwidth in MiByte/s
system.mem_ctrls.dram.busUtil                    2.96                       # Data bus utilization in percentage
system.mem_ctrls.dram.busUtilRead                2.56                       # Data bus utilization in percentage for reads
system.mem_ctrls.dram.busUtilWrite               0.40                       # Data bus utilization in percentage for writes
system.mem_ctrls.dram.pageHitRate               86.37                       # Row buffer hit rate, read and write combined
system.mem_ctrls.dram.power_state.pwrStateResidencyTicks::UNDEFINED   2963517000                       # Cumulative time (in ticks) in various power states
system.mem_ctrls.dram.rank0.actEnergy         8767920                       # Energy for activate commands per rank (pJ)
system.mem_ctrls.dram.rank0.preEnergy         4652670                       # Energy for precharge commands per rank (pJ)
system.mem_ctrls.dram.rank0.readEnergy       54863760                       # Energy for read commands per rank (pJ)
system.mem_ctrls.dram.rank0.writeEnergy       6290100                       # Energy for write commands per rank (pJ)
system.mem_ctrls.dram.rank0.refreshEnergy 233563200.000000                       # Energy for refresh commands per rank (pJ)
system.mem_ctrls.dram.rank0.actBackEnergy    918771030                       # Energy for active background per rank (pJ)
system.mem_ctrls.dram.rank0.preBackEnergy    364288800                       # Energy for precharge background per rank (pJ)
system.mem_ctrls.dram.rank0.actPowerDownEnergy            0                       # Energy for active power-down per rank (pJ)
system.mem_ctrls.dram.rank0.prePowerDownEnergy            0                       # Energy for precharge power-down per rank (pJ)
system.mem_ctrls.dram.rank0.selfRefreshEnergy            0                       # Energy for self refresh per rank (pJ)
system.mem_ctrls.dram.rank0.totalEnergy    1591197480                       # Total energy per rank (pJ)
system.mem_ctrls.dram.rank0.averagePower   536.928751                       # Core power per rank (mW)
system.mem_ctrls.dram.rank0.totalIdleTime            0                       # Total Idle time Per DRAM Rank
system.mem_ctrls.dram.rank0.pwrStateTime::IDLE    938326000                       # Time in different power states
system.mem_ctrls.dram.rank0.pwrStateTime::REF     98800000                       # Time in different power states
system.mem_ctrls.dram.rank0.pwrStateTime::SREF            0                       # Time in different power states
system.mem_ctrls.dram.rank0.pwrStateTime::PRE_PDN            0                       # Time in different power states
system.mem_ctrls.dram.rank0.pwrStateTime::ACT   1926391000                       # Time in different power states
system.mem_ctrls.dram.rank0.pwrStateTime::ACT_PDN            0                       # Time in different power states
system.mem_ctrls.dram.rank1.actEnergy         8289540                       # Energy for activate commands per rank (pJ)
system.mem_ctrls.dram.rank1.preEnergy         4405995                       # Energy for precharge commands per rank (pJ)
system.mem_ctrls.dram.rank1.readEnergy       53428620                       # Energy for read commands per rank (pJ)
system.mem_ctrls.dram.rank1.writeEnergy       6008220                       # Energy for write commands per rank (pJ)
system.mem_ctrls.dram.rank1.refreshEnergy 233563200.000000                       # Energy for refresh commands per rank (pJ)
system.mem_ctrls.dram.rank1.actBackEnergy    964365330                       # Energy for active background per rank (pJ)
system.mem_ctrls.dram.rank1.preBackEnergy    325893600                       # Energy for precharge background per rank (pJ)
system.mem_ctrls.dram.rank1.actPowerDownEnergy            0                       # Energy for active power-down per rank (pJ)
system.mem_ctrls.dram.rank1.prePowerDownEnergy            0                       # Energy for precharge power-down per rank (pJ)
system.mem_ctrls.dram.rank1.selfRefreshEnergy            0                       # Energy for self refresh per rank (pJ)
system.mem_ctrls.dram.rank1.totalEnergy    1595954505                       # Total energy per rank (pJ)
system.mem_ctrls.dram.rank1.averagePower   538.533946                       # Core power per rank (mW)
system.mem_ctrls.dram.rank1.totalIdleTime            0                       # Total Idle time Per DRAM Rank
system.mem_ctrls.dram.rank1.pwrStateTime::IDLE    838205750                       # Time in different power states
system.mem_ctrls.dram.rank1.pwrStateTime::REF     98800000                       # Time in different power states
system.mem_ctrls.dram.rank1.pwrStateTime::SREF            0                       # Time in different power states
system.mem_ctrls.dram.rank1.pwrStateTime::PRE_PDN            0                       # Time in different power states
system.mem_ctrls.dram.rank1.pwrStateTime::ACT   2026511250                       # Time in different power states
system.mem_ctrls.dram.rank1.pwrStateTime::ACT_PDN            0                       # Time in different power states
system.mem_ctrls.power_state.pwrStateResidencyTicks::UNDEFINED   2963517000                       # Cumulative time (in ticks) in various power states
system.membus.trans_dist::ReadResp               4723                       # Transaction distribution
system.membus.trans_dist::WritebackDirty         2374                       # Transaction distribution
system.membus.trans_dist::CleanEvict             4094                       # Transaction distribution
system.membus.trans_dist::ReadExReq             10450                       # Transaction distribution
system.membus.trans_dist::ReadExResp            10450                       # Transaction distribution
system.membus.trans_dist::ReadSharedReq          4723                       # Transaction distribution
system.membus.pkt_count_system.l2.mem_side_port::system.mem_ctrls.port        36814                       # Packet count per connected requestor and responder (bytes)
system.membus.pkt_count_system.l2.mem_side_port::total        36814                       # Packet count per connected requestor and responder (bytes)
system.membus.pkt_count::total                  36814                       # Packet count per connected requestor and responder (bytes)
system.membus.pkt_size_system.l2.mem_side_port::system.mem_ctrls.port      1123008                       # Cumulative packet size per connected requestor and responder (bytes)
system.membus.pkt_size_system.l2.mem_side_port::total      1123008                       # Cumulative packet size per connected requestor and responder (bytes)
system.membus.pkt_size::total                 1123008                       # Cumulative packet size per connected requestor and responder (bytes)
system.membus.snoops                                0                       # Total snoops (count)
system.membus.snoopTraffic                          0                       # Total snoop traffic (bytes)
system.membus.snoop_fanout::samples             15173                       # Request fanout histogram
system.membus.snoop_fanout::mean                    0                       # Request fanout histogram
system.membus.snoop_fanout::stdev                   0                       # Request fanout histogram
system.membus.snoop_fanout::underflows              0      0.00%      0.00% # Request fanout histogram
system.membus.snoop_fanout::0                   15173    100.00%    100.00% # Request fanout histogram
system.membus.snoop_fanout::1                       0      0.00%    100.00% # Request fanout histogram
system.membus.snoop_fanout::overflows               0      0.00%    100.00% # Request fanout histogram
system.membus.snoop_fanout::min_value               0                       # Request fanout histogram
system.membus.snoop_fanout::max_value               0                       # Request fanout histogram
system.membus.snoop_fanout::total               15173                       # Request fanout histogram
system.membus.power_state.pwrStateResidencyTicks::UNDEFINED   2963517000                       # Cumulative time (in ticks) in various power states
system.membus.reqLayer2.occupancy             7784250                       # Layer occupancy (ticks)
system.membus.reqLayer2.utilization               0.3                       # Layer utilization (%)
system.membus.respLayer1.occupancy           18966250                       # Layer occupancy (ticks)
system.membus.respLayer1.utilization              0.6                       # Layer utilization (%)
system.tol2bus.trans_dist::ReadResp              6630                       # Transaction distribution
system.tol2bus.trans_dist::WritebackDirty        13396                       # Transaction distribution
system.tol2bus.trans_dist::WritebackClean         2067                       # Transaction distribution
system.tol2bus.trans_dist::CleanEvict            7833                       # Transaction distribution
system.tol2bus.trans_dist::ReadExReq            10706                       # Transaction distribution
system.tol2bus.trans_dist::ReadExResp           10706                       # Transaction distribution
system.tol2bus.trans_dist::ReadCleanReq          2579                       # Transaction distribution
system.tol2bus.trans_dist::ReadSharedReq         4051                       # Transaction distribution
system.tol2bus.pkt_count_system.cpu.icache.mem_side_port::system.l2.cpu_side_port         7222                       # Packet count per connected requestor and responder (bytes)
system.tol2bus.pkt_count_system.cpu.dcache.mem_side_port::system.l2.cpu_side_port        43759                       # Packet count per connected requestor and responder (bytes)
system.tol2bus.pkt_count::total                 50981                       # Packet count per connected requestor and responder (bytes)
system.tol2bus.pkt_size_system.cpu.icache.mem_side_port::system.l2.cpu_side_port       297152                       # Cumulative packet size per connected requestor and responder (bytes)
system.tol2bus.pkt_size_system.cpu.dcache.mem_side_port::system.l2.cpu_side_port      1649856                       # Cumulative packet size per connected requestor and responder (bytes)
system.tol2bus.pkt_size::total                1947008                       # Cumulative packet size per connected requestor and responder (bytes)
system.tol2bus.snoops                            6987                       # Total snoops (count)
system.tol2bus.snoopTraffic                    152128                       # Total snoop traffic (bytes)
system.tol2bus.snoop_fanout::samples            24320                       # Request fanout histogram
system.tol2bus.snoop_fanout::mean            0.021793                       # Request fanout histogram
system.tol2bus.snoop_fanout::stdev           0.146009                       # Request fanout histogram
system.tol2bus.snoop_fanout::underflows             0      0.00%      0.00% # Request fanout histogram
system.tol2bus.snoop_fanout::0                  23790     97.82%     97.82% # Request fanout histogram
system.tol2bus.snoop_fanout::1                    530      2.18%    100.00% # Request fanout histogram
system.tol2bus.snoop_fanout::2                      0      0.00%    100.00% # Request fanout histogram
system.tol2bus.snoop_fanout::3                      0      0.00%    100.00% # Request fanout histogram
system.tol2bus.snoop_fanout::4                      0      0.00%    100.00% # Request fanout histogram
system.tol2bus.snoop_fanout::overflows              0      0.00%    100.00% # Request fanout histogram
system.tol2bus.snoop_fanout::min_value              0                       # Request fanout histogram
system.tol2bus.snoop_fanout::max_value              1                       # Request fanout histogram
system.tol2bus.snoop_fanout::total              24320                       # Request fanout histogram
system.tol2bus.power_state.pwrStateResidencyTicks::UNDEFINED   2963517000                       # Cumulative time (in ticks) in various power states
system.tol2bus.reqLayer0.occupancy           29913000                       # Layer occupancy (ticks)
system.tol2bus.reqLayer0.utilization              1.0                       # Layer utilization (%)
system.tol2bus.respLayer0.occupancy           3870995                       # Layer occupancy (ticks)
system.tol2bus.respLayer0.utilization             0.1                       # Layer utilization (%)
system.tol2bus.respLayer1.occupancy          22135500                       # Layer occupancy (ticks)
system.tol2bus.respLayer1.utilization             0.7                       # Layer utilization (%)
system.voltage_domain.voltage                       1                       # Voltage in Volts

---------- End Simulation Statistics   ----------
