Global frequency set at 1000000000000 ticks per second
Redirecting stdout to /data/home/rwa116/Project/CMPT750-Proj-Benchmark/results/X86/spec2017/605.mcf_s/TimingSimpleCPU/PerceptronBP/simout
Redirecting stderr to /data/home/rwa116/Project/CMPT750-Proj-Benchmark/results/X86/spec2017/605.mcf_s/TimingSimpleCPU/PerceptronBP/simerr
gem5 Simulator System.  http://gem5.org
gem5 is copyrighted software; use the --copyright option for details.

gem5 version 20.1.0.2
gem5 compiled Nov  5 2023 03:49:49
gem5 started Nov 11 2023 22:56:17
gem5 executing on ARCH-750, pid 3913451
command line: /data/home/jiatangz/CMPT750-Proj/build/X86/gem5.opt -re --outdir=/data/home/rwa116/Project/CMPT750-Proj-Benchmark/results/X86/spec2017/605.mcf_s/TimingSimpleCPU/PerceptronBP /data/home/jiatangz/CMPT750-Proj/configs/example/se.py --cpu-type=TimingSimpleCPU --bp-type=PerceptronBP --cmd=/data/home/rwa116/Project/spec/benchspec/CPU/605.mcf_s/build/build_base_mytest-m64.0000/mcf_s '--options=inp.in  > inp.out 2>> inp.err' --sys-clock=4GHz --warmup-insts=1000000 --maxinsts=10000000

info: Standard input is not a terminal, disabling listeners.
**** REAL SIMULATION ****

MCF SPEC CPU version 1.11
Copyright (c) 1998-2000 Zuse Institut Berlin (ZIB)
Copyright (c) 2000-2002 Andreas Loebel & ZIB
Copyright (c) 2003-2005 Andreas Loebel
Copyright (c) 2006-2010 Dres. Loebel, Borndoerfer & Weider GbR (LBW)

Exiting @ tick 729869613000 because a thread reached the max instruction count
