
---------- Begin Simulation Statistics ----------
final_tick                                15787580000                       # Number of ticks from beginning of simulation (restored from checkpoints and never reset)
host_inst_rate                                  71816                       # Simulator instruction rate (inst/s)
host_mem_usage                                 675120                       # Number of bytes of host memory used
host_op_rate                                   135464                       # Simulator op (including micro ops) rate (op/s)
host_seconds                                   417.73                       # Real time elapsed on the host
host_tick_rate                               37793293                       # Simulator tick rate (ticks/s)
sim_freq                                 1000000000000                       # Frequency of simulated ticks
sim_insts                                    30000004                       # Number of instructions simulated
sim_ops                                      56587904                       # Number of ops (including micro ops) simulated
sim_seconds                                  0.015788                       # Number of seconds simulated
sim_ticks                                 15787580000                       # Number of ticks simulated
system.cpu.cc_regfile_reads                  36179348                       # number of cc regfile reads
system.cpu.cc_regfile_writes                 17297329                       # number of cc regfile writes
system.cpu.committedInsts                    30000004                       # Number of Instructions Simulated
system.cpu.committedOps                      56587904                       # Number of Ops (including micro ops) Simulated
system.cpu.cpi                               1.052505                       # CPI: Cycles Per Instruction
system.cpu.cpi_total                         1.052505                       # CPI: Total CPI of All Threads
system.cpu.fp_regfile_reads                   1583965                       # number of floating regfile reads
system.cpu.fp_regfile_writes                   869225                       # number of floating regfile writes
system.cpu.idleCycles                           88123                       # Total number of cycles that the CPU has spent unscheduled due to idling
system.cpu.iew.branchMispredicts               158737                       # Number of branch mispredicts detected at execute
system.cpu.iew.exec_branches                  6499656                       # Number of branches executed
system.cpu.iew.exec_nop                             0                       # number of nop insts executed
system.cpu.iew.exec_rate                     1.874096                       # Inst execution rate
system.cpu.iew.exec_refs                     12067237                       # number of memory reference insts executed
system.cpu.iew.exec_stores                    4966395                       # Number of stores executed
system.cpu.iew.exec_swp                             0                       # number of swp insts executed
system.cpu.iew.iewBlockCycles                 2474237                       # Number of cycles IEW is blocking
system.cpu.iew.iewDispLoadInsts               7202269                       # Number of dispatched load instructions
system.cpu.iew.iewDispNonSpecInsts                 63                       # Number of dispatched non-speculative instructions
system.cpu.iew.iewDispSquashedInsts              4421                       # Number of squashed instructions skipped by dispatch
system.cpu.iew.iewDispStoreInsts              5097434                       # Number of dispatched store instructions
system.cpu.iew.iewDispatchedInsts            60805246                       # Number of instructions dispatched to IQ
system.cpu.iew.iewExecLoadInsts               7100842                       # Number of load instructions executed
system.cpu.iew.iewExecSquashedInsts            308197                       # Number of squashed instructions skipped in execute
system.cpu.iew.iewExecutedInsts              59174875                       # Number of executed instructions
system.cpu.iew.iewIQFullEvents                  18450                       # Number of times the IQ has become full, causing a stall
system.cpu.iew.iewIdleCycles                        0                       # Number of cycles IEW is idle
system.cpu.iew.iewLSQFullEvents               2104924                       # Number of times the LSQ has become full, causing a stall
system.cpu.iew.iewSquashCycles                 134077                       # Number of cycles IEW is squashing
system.cpu.iew.iewUnblockCycles               2142952                       # Number of cycles IEW is unblocking
system.cpu.iew.memOrderViolationEvents            441                       # Number of memory order violations
system.cpu.iew.predictedNotTakenIncorrect       115592                       # Number of branches that were predicted not taken incorrectly
system.cpu.iew.predictedTakenIncorrect          43145                       # Number of branches that were predicted taken incorrectly
system.cpu.iew.wb_consumers                  67169250                       # num instructions consuming a value
system.cpu.iew.wb_count                      59024683                       # cumulative count of insts written-back
system.cpu.iew.wb_fanout                     0.607744                       # average fanout of values written-back
system.cpu.iew.wb_producers                  40821689                       # num instructions producing a value
system.cpu.iew.wb_rate                       1.869339                       # insts written-back per cycle
system.cpu.iew.wb_sent                       59092548                       # cumulative count of insts sent to commit
system.cpu.int_regfile_reads                 91986647                       # number of integer regfile reads
system.cpu.int_regfile_writes                47283892                       # number of integer regfile writes
system.cpu.ipc                               0.950114                       # IPC: Instructions Per Cycle
system.cpu.ipc_total                         0.950114                       # IPC: Total IPC of All Threads
system.cpu.iq.FU_type_0::No_OpClass            588890      0.99%      0.99% # Type of FU issued
system.cpu.iq.FU_type_0::IntAlu              45432790     76.38%     77.37% # Type of FU issued
system.cpu.iq.FU_type_0::IntMult               263852      0.44%     77.81% # Type of FU issued
system.cpu.iq.FU_type_0::IntDiv                383871      0.65%     78.46% # Type of FU issued
system.cpu.iq.FU_type_0::FloatAdd              128356      0.22%     78.67% # Type of FU issued
system.cpu.iq.FU_type_0::FloatCmp                   0      0.00%     78.67% # Type of FU issued
system.cpu.iq.FU_type_0::FloatCvt                  32      0.00%     78.67% # Type of FU issued
system.cpu.iq.FU_type_0::FloatMult                  0      0.00%     78.67% # Type of FU issued
system.cpu.iq.FU_type_0::FloatMultAcc               0      0.00%     78.67% # Type of FU issued
system.cpu.iq.FU_type_0::FloatDiv                   0      0.00%     78.67% # Type of FU issued
system.cpu.iq.FU_type_0::FloatMisc                  0      0.00%     78.67% # Type of FU issued
system.cpu.iq.FU_type_0::FloatSqrt                  0      0.00%     78.67% # Type of FU issued
system.cpu.iq.FU_type_0::SimdAdd                  450      0.00%     78.67% # Type of FU issued
system.cpu.iq.FU_type_0::SimdAddAcc                 0      0.00%     78.67% # Type of FU issued
system.cpu.iq.FU_type_0::SimdAlu                65432      0.11%     78.78% # Type of FU issued
system.cpu.iq.FU_type_0::SimdCmp                   20      0.00%     78.78% # Type of FU issued
system.cpu.iq.FU_type_0::SimdCvt                99383      0.17%     78.95% # Type of FU issued
system.cpu.iq.FU_type_0::SimdMisc              367481      0.62%     79.57% # Type of FU issued
system.cpu.iq.FU_type_0::SimdMult                   0      0.00%     79.57% # Type of FU issued
system.cpu.iq.FU_type_0::SimdMultAcc                0      0.00%     79.57% # Type of FU issued
system.cpu.iq.FU_type_0::SimdShift                320      0.00%     79.57% # Type of FU issued
system.cpu.iq.FU_type_0::SimdShiftAcc               0      0.00%     79.57% # Type of FU issued
system.cpu.iq.FU_type_0::SimdDiv                    0      0.00%     79.57% # Type of FU issued
system.cpu.iq.FU_type_0::SimdSqrt                   0      0.00%     79.57% # Type of FU issued
system.cpu.iq.FU_type_0::SimdFloatAdd               0      0.00%     79.57% # Type of FU issued
system.cpu.iq.FU_type_0::SimdFloatAlu               0      0.00%     79.57% # Type of FU issued
system.cpu.iq.FU_type_0::SimdFloatCmp               0      0.00%     79.57% # Type of FU issued
system.cpu.iq.FU_type_0::SimdFloatCvt               4      0.00%     79.57% # Type of FU issued
system.cpu.iq.FU_type_0::SimdFloatDiv               0      0.00%     79.57% # Type of FU issued
system.cpu.iq.FU_type_0::SimdFloatMisc              0      0.00%     79.57% # Type of FU issued
system.cpu.iq.FU_type_0::SimdFloatMult              2      0.00%     79.57% # Type of FU issued
system.cpu.iq.FU_type_0::SimdFloatMultAcc            0      0.00%     79.57% # Type of FU issued
system.cpu.iq.FU_type_0::SimdFloatSqrt              0      0.00%     79.57% # Type of FU issued
system.cpu.iq.FU_type_0::SimdReduceAdd              0      0.00%     79.57% # Type of FU issued
system.cpu.iq.FU_type_0::SimdReduceAlu              0      0.00%     79.57% # Type of FU issued
system.cpu.iq.FU_type_0::SimdReduceCmp              0      0.00%     79.57% # Type of FU issued
system.cpu.iq.FU_type_0::SimdFloatReduceAdd            0      0.00%     79.57% # Type of FU issued
system.cpu.iq.FU_type_0::SimdFloatReduceCmp            0      0.00%     79.57% # Type of FU issued
system.cpu.iq.FU_type_0::SimdAes                    0      0.00%     79.57% # Type of FU issued
system.cpu.iq.FU_type_0::SimdAesMix                 0      0.00%     79.57% # Type of FU issued
system.cpu.iq.FU_type_0::SimdSha1Hash               0      0.00%     79.57% # Type of FU issued
system.cpu.iq.FU_type_0::SimdSha1Hash2              0      0.00%     79.57% # Type of FU issued
system.cpu.iq.FU_type_0::SimdSha256Hash             0      0.00%     79.57% # Type of FU issued
system.cpu.iq.FU_type_0::SimdSha256Hash2            0      0.00%     79.57% # Type of FU issued
system.cpu.iq.FU_type_0::SimdShaSigma2              0      0.00%     79.57% # Type of FU issued
system.cpu.iq.FU_type_0::SimdShaSigma3              0      0.00%     79.57% # Type of FU issued
system.cpu.iq.FU_type_0::SimdPredAlu                0      0.00%     79.57% # Type of FU issued
system.cpu.iq.FU_type_0::MemRead              6886413     11.58%     91.15% # Type of FU issued
system.cpu.iq.FU_type_0::MemWrite             4547824      7.65%     98.79% # Type of FU issued
system.cpu.iq.FU_type_0::FloatMemRead          268508      0.45%     99.24% # Type of FU issued
system.cpu.iq.FU_type_0::FloatMemWrite         449446      0.76%    100.00% # Type of FU issued
system.cpu.iq.FU_type_0::IprAccess                  0      0.00%    100.00% # Type of FU issued
system.cpu.iq.FU_type_0::InstPrefetch               0      0.00%    100.00% # Type of FU issued
system.cpu.iq.FU_type_0::total               59483074                       # Type of FU issued
system.cpu.iq.fp_alu_accesses                 1495498                       # Number of floating point alu accesses
system.cpu.iq.fp_inst_queue_reads             2955511                       # Number of floating instruction queue reads
system.cpu.iq.fp_inst_queue_wakeup_accesses      1410446                       # Number of floating instruction queue wakeup accesses
system.cpu.iq.fp_inst_queue_writes            1771403                       # Number of floating instruction queue writes
system.cpu.iq.fu_busy_cnt                      866100                       # FU busy when requested
system.cpu.iq.fu_busy_rate                   0.014560                       # FU busy rate (busy events/executed inst)
system.cpu.iq.fu_full::No_OpClass                   0      0.00%      0.00% # attempts to use FU when none available
system.cpu.iq.fu_full::IntAlu                  714686     82.52%     82.52% # attempts to use FU when none available
system.cpu.iq.fu_full::IntMult                      0      0.00%     82.52% # attempts to use FU when none available
system.cpu.iq.fu_full::IntDiv                       0      0.00%     82.52% # attempts to use FU when none available
system.cpu.iq.fu_full::FloatAdd                     0      0.00%     82.52% # attempts to use FU when none available
system.cpu.iq.fu_full::FloatCmp                     0      0.00%     82.52% # attempts to use FU when none available
system.cpu.iq.fu_full::FloatCvt                     0      0.00%     82.52% # attempts to use FU when none available
system.cpu.iq.fu_full::FloatMult                    0      0.00%     82.52% # attempts to use FU when none available
system.cpu.iq.fu_full::FloatMultAcc                 0      0.00%     82.52% # attempts to use FU when none available
system.cpu.iq.fu_full::FloatDiv                     0      0.00%     82.52% # attempts to use FU when none available
system.cpu.iq.fu_full::FloatMisc                    0      0.00%     82.52% # attempts to use FU when none available
system.cpu.iq.fu_full::FloatSqrt                    0      0.00%     82.52% # attempts to use FU when none available
system.cpu.iq.fu_full::SimdAdd                      0      0.00%     82.52% # attempts to use FU when none available
system.cpu.iq.fu_full::SimdAddAcc                   0      0.00%     82.52% # attempts to use FU when none available
system.cpu.iq.fu_full::SimdAlu                     15      0.00%     82.52% # attempts to use FU when none available
system.cpu.iq.fu_full::SimdCmp                      2      0.00%     82.52% # attempts to use FU when none available
system.cpu.iq.fu_full::SimdCvt                   2819      0.33%     82.85% # attempts to use FU when none available
system.cpu.iq.fu_full::SimdMisc                   485      0.06%     82.90% # attempts to use FU when none available
system.cpu.iq.fu_full::SimdMult                     0      0.00%     82.90% # attempts to use FU when none available
system.cpu.iq.fu_full::SimdMultAcc                  0      0.00%     82.90% # attempts to use FU when none available
system.cpu.iq.fu_full::SimdShift                    1      0.00%     82.90% # attempts to use FU when none available
system.cpu.iq.fu_full::SimdShiftAcc                 0      0.00%     82.90% # attempts to use FU when none available
system.cpu.iq.fu_full::SimdDiv                      0      0.00%     82.90% # attempts to use FU when none available
system.cpu.iq.fu_full::SimdSqrt                     0      0.00%     82.90% # attempts to use FU when none available
system.cpu.iq.fu_full::SimdFloatAdd                 0      0.00%     82.90% # attempts to use FU when none available
system.cpu.iq.fu_full::SimdFloatAlu                 0      0.00%     82.90% # attempts to use FU when none available
system.cpu.iq.fu_full::SimdFloatCmp                 0      0.00%     82.90% # attempts to use FU when none available
system.cpu.iq.fu_full::SimdFloatCvt                 0      0.00%     82.90% # attempts to use FU when none available
system.cpu.iq.fu_full::SimdFloatDiv                 0      0.00%     82.90% # attempts to use FU when none available
system.cpu.iq.fu_full::SimdFloatMisc                0      0.00%     82.90% # attempts to use FU when none available
system.cpu.iq.fu_full::SimdFloatMult                0      0.00%     82.90% # attempts to use FU when none available
system.cpu.iq.fu_full::SimdFloatMultAcc             0      0.00%     82.90% # attempts to use FU when none available
system.cpu.iq.fu_full::SimdFloatSqrt                0      0.00%     82.90% # attempts to use FU when none available
system.cpu.iq.fu_full::SimdReduceAdd                0      0.00%     82.90% # attempts to use FU when none available
system.cpu.iq.fu_full::SimdReduceAlu                0      0.00%     82.90% # attempts to use FU when none available
system.cpu.iq.fu_full::SimdReduceCmp                0      0.00%     82.90% # attempts to use FU when none available
system.cpu.iq.fu_full::SimdFloatReduceAdd            0      0.00%     82.90% # attempts to use FU when none available
system.cpu.iq.fu_full::SimdFloatReduceCmp            0      0.00%     82.90% # attempts to use FU when none available
system.cpu.iq.fu_full::SimdAes                      0      0.00%     82.90% # attempts to use FU when none available
system.cpu.iq.fu_full::SimdAesMix                   0      0.00%     82.90% # attempts to use FU when none available
system.cpu.iq.fu_full::SimdSha1Hash                 0      0.00%     82.90% # attempts to use FU when none available
system.cpu.iq.fu_full::SimdSha1Hash2                0      0.00%     82.90% # attempts to use FU when none available
system.cpu.iq.fu_full::SimdSha256Hash               0      0.00%     82.90% # attempts to use FU when none available
system.cpu.iq.fu_full::SimdSha256Hash2              0      0.00%     82.90% # attempts to use FU when none available
system.cpu.iq.fu_full::SimdShaSigma2                0      0.00%     82.90% # attempts to use FU when none available
system.cpu.iq.fu_full::SimdShaSigma3                0      0.00%     82.90% # attempts to use FU when none available
system.cpu.iq.fu_full::SimdPredAlu                  0      0.00%     82.90% # attempts to use FU when none available
system.cpu.iq.fu_full::MemRead                  67955      7.85%     90.75% # attempts to use FU when none available
system.cpu.iq.fu_full::MemWrite                 47595      5.50%     96.24% # attempts to use FU when none available
system.cpu.iq.fu_full::FloatMemRead              1021      0.12%     96.36% # attempts to use FU when none available
system.cpu.iq.fu_full::FloatMemWrite            31521      3.64%    100.00% # attempts to use FU when none available
system.cpu.iq.fu_full::IprAccess                    0      0.00%    100.00% # attempts to use FU when none available
system.cpu.iq.fu_full::InstPrefetch                 0      0.00%    100.00% # attempts to use FU when none available
system.cpu.iq.int_alu_accesses               58264786                       # Number of integer alu accesses
system.cpu.iq.int_inst_queue_reads          148391023                       # Number of integer instruction queue reads
system.cpu.iq.int_inst_queue_wakeup_accesses     57614237                       # Number of integer instruction queue wakeup accesses
system.cpu.iq.int_inst_queue_writes          63251598                       # Number of integer instruction queue writes
system.cpu.iq.iqInstsAdded                   60805097                       # Number of instructions added to the IQ (excludes non-spec)
system.cpu.iq.iqInstsIssued                  59483074                       # Number of instructions issued
system.cpu.iq.iqNonSpecInstsAdded                 149                       # Number of non-speculative instructions added to the IQ
system.cpu.iq.iqSquashedInstsExamined         4217321                       # Number of squashed instructions iterated over during squash; mainly for profiling
system.cpu.iq.iqSquashedInstsIssued             27250                       # Number of squashed instructions issued
system.cpu.iq.iqSquashedNonSpecRemoved             83                       # Number of squashed non-spec instructions that were removed
system.cpu.iq.iqSquashedOperandsExamined      6213281                       # Number of squashed operands that are examined and possibly removed from graph
system.cpu.iq.issued_per_cycle::samples      31487038                       # Number of insts issued each cycle
system.cpu.iq.issued_per_cycle::mean         1.889129                       # Number of insts issued each cycle
system.cpu.iq.issued_per_cycle::stdev        2.366844                       # Number of insts issued each cycle
system.cpu.iq.issued_per_cycle::underflows            0      0.00%      0.00% # Number of insts issued each cycle
system.cpu.iq.issued_per_cycle::0            15747390     50.01%     50.01% # Number of insts issued each cycle
system.cpu.iq.issued_per_cycle::1             2353632      7.47%     57.49% # Number of insts issued each cycle
system.cpu.iq.issued_per_cycle::2             2677959      8.50%     65.99% # Number of insts issued each cycle
system.cpu.iq.issued_per_cycle::3             2797124      8.88%     74.88% # Number of insts issued each cycle
system.cpu.iq.issued_per_cycle::4             2322357      7.38%     82.25% # Number of insts issued each cycle
system.cpu.iq.issued_per_cycle::5             1812018      5.75%     88.01% # Number of insts issued each cycle
system.cpu.iq.issued_per_cycle::6             2030025      6.45%     94.45% # Number of insts issued each cycle
system.cpu.iq.issued_per_cycle::7             1119780      3.56%     98.01% # Number of insts issued each cycle
system.cpu.iq.issued_per_cycle::8              626753      1.99%    100.00% # Number of insts issued each cycle
system.cpu.iq.issued_per_cycle::overflows            0      0.00%    100.00% # Number of insts issued each cycle
system.cpu.iq.issued_per_cycle::min_value            0                       # Number of insts issued each cycle
system.cpu.iq.issued_per_cycle::max_value            8                       # Number of insts issued each cycle
system.cpu.iq.issued_per_cycle::total        31487038                       # Number of insts issued each cycle
system.cpu.iq.rate                           1.883857                       # Inst issue rate
system.cpu.iq.vec_alu_accesses                      0                       # Number of vector alu accesses
system.cpu.iq.vec_inst_queue_reads                  0                       # Number of vector instruction queue reads
system.cpu.iq.vec_inst_queue_wakeup_accesses            0                       # Number of vector instruction queue wakeup accesses
system.cpu.iq.vec_inst_queue_writes                 0                       # Number of vector instruction queue writes
system.cpu.memDep0.conflictingLoads            210464                       # Number of conflicting loads.
system.cpu.memDep0.conflictingStores            41753                       # Number of conflicting stores.
system.cpu.memDep0.insertedLoads              7202269                       # Number of loads inserted to the mem dependence unit.
system.cpu.memDep0.insertedStores             5097434                       # Number of stores inserted to the mem dependence unit.
system.cpu.misc_regfile_reads                24942439                       # number of misc regfile reads
system.cpu.misc_regfile_writes                     18                       # number of misc regfile writes
system.cpu.numCycles                         31575161                       # number of cpu cycles simulated
system.cpu.numWorkItemsCompleted                    0                       # number of work items this cpu completed
system.cpu.numWorkItemsStarted                      0                       # number of work items this cpu started
system.cpu.timesIdled                             920                       # Number of times that the entire CPU went into an idle state and unscheduled itself
system.cpu.workload.numSyscalls                    70                       # Number of system calls
system.membus.snoop_filter.hit_multi_requests            0                       # Number of requests hitting in the snoop filter with multiple (>1) holders of the requested data.
system.membus.snoop_filter.hit_multi_snoops            0                       # Number of snoops hitting in the snoop filter with multiple (>1) holders of the requested data.
system.membus.snoop_filter.hit_single_requests       101225                       # Number of requests hitting in the snoop filter with a single holder of the requested data.
system.membus.snoop_filter.hit_single_snoops            0                       # Number of snoops hitting in the snoop filter with a single holder of the requested data.
system.membus.snoop_filter.tot_requests        211162                       # Total number of requests made to the snoop filter.
system.membus.snoop_filter.tot_snoops               0                       # Total number of snoops made to the snoop filter.
system.tol2bus.snoop_filter.hit_multi_requests           41                       # Number of requests hitting in the snoop filter with multiple (>1) holders of the requested data.
system.tol2bus.snoop_filter.hit_multi_snoops           12                       # Number of snoops hitting in the snoop filter with multiple (>1) holders of the requested data.
system.tol2bus.snoop_filter.hit_single_requests       176135                       # Number of requests hitting in the snoop filter with a single holder of the requested data.
system.tol2bus.snoop_filter.hit_single_snoops          698                       # Number of snoops hitting in the snoop filter with a single holder of the requested data.
system.tol2bus.snoop_filter.tot_requests       353290                       # Total number of requests made to the snoop filter.
system.tol2bus.snoop_filter.tot_snoops            710                       # Total number of snoops made to the snoop filter.
system.clk_domain.clock                           250                       # Clock period in ticks
system.cpu.branchPred.lookups                 7076526                       # Number of BP lookups
system.cpu.branchPred.condPredicted           5743809                       # Number of conditional branches predicted
system.cpu.branchPred.condIncorrect            164089                       # Number of conditional branches incorrect
system.cpu.branchPred.BTBLookups              3027618                       # Number of BTB lookups
system.cpu.branchPred.BTBHits                 2818207                       # Number of BTB hits
system.cpu.branchPred.BTBHitPct             93.083308                       # BTB Hit Percentage
system.cpu.branchPred.RASUsed                  373782                       # Number of times the RAS was used to get a target.
system.cpu.branchPred.RASIncorrect                 10                       # Number of incorrect RAS predictions.
system.cpu.branchPred.indirectLookups          158897                       # Number of indirect predictor lookups.
system.cpu.branchPred.indirectHits             154120                       # Number of indirect target hits.
system.cpu.branchPred.indirectMisses             4777                       # Number of indirect misses.
system.cpu.branchPred.indirectMispredicted          453                       # Number of mispredicted indirect branches.
system.cpu.commit.commitSquashedInsts         4194122                       # The number of squashed insts skipped by commit
system.cpu.commit.commitNonSpecStalls              66                       # The number of times commit has been forced to stall to communicate backwards
system.cpu.commit.branchMispredicts            131771                       # The number of times a branch was mispredicted
system.cpu.commit.numCommittedDist::samples     30873535                       # Number of insts commited each cycle
system.cpu.commit.numCommittedDist::mean     1.832894                       # Number of insts commited each cycle
system.cpu.commit.numCommittedDist::stdev     2.665747                       # Number of insts commited each cycle
system.cpu.commit.numCommittedDist::underflows            0      0.00%      0.00% # Number of insts commited each cycle
system.cpu.commit.numCommittedDist::0        16842308     54.55%     54.55% # Number of insts commited each cycle
system.cpu.commit.numCommittedDist::1         3242754     10.50%     65.06% # Number of insts commited each cycle
system.cpu.commit.numCommittedDist::2         1669615      5.41%     70.46% # Number of insts commited each cycle
system.cpu.commit.numCommittedDist::3         2810088      9.10%     79.57% # Number of insts commited each cycle
system.cpu.commit.numCommittedDist::4          731192      2.37%     81.93% # Number of insts commited each cycle
system.cpu.commit.numCommittedDist::5         1127719      3.65%     85.59% # Number of insts commited each cycle
system.cpu.commit.numCommittedDist::6         1008522      3.27%     88.85% # Number of insts commited each cycle
system.cpu.commit.numCommittedDist::7          569535      1.84%     90.70% # Number of insts commited each cycle
system.cpu.commit.numCommittedDist::8         2871802      9.30%    100.00% # Number of insts commited each cycle
system.cpu.commit.numCommittedDist::overflows            0      0.00%    100.00% # Number of insts commited each cycle
system.cpu.commit.numCommittedDist::min_value            0                       # Number of insts commited each cycle
system.cpu.commit.numCommittedDist::max_value            8                       # Number of insts commited each cycle
system.cpu.commit.numCommittedDist::total     30873535                       # Number of insts commited each cycle
system.cpu.commit.instsCommitted             30000004                       # Number of instructions committed
system.cpu.commit.opsCommitted               56587904                       # Number of ops (including micro ops) committed
system.cpu.commit.memRefs                    11594550                       # Number of memory references committed
system.cpu.commit.loads                       6715608                       # Number of loads committed
system.cpu.commit.amos                              0                       # Number of atomic instructions committed
system.cpu.commit.membars                          32                       # Number of memory barriers committed
system.cpu.commit.branches                    6289400                       # Number of branches committed
system.cpu.commit.vector                            0                       # Number of committed Vector instructions.
system.cpu.commit.floating                    1300928                       # Number of committed floating point instructions.
system.cpu.commit.integer                    55513569                       # Number of committed integer instructions.
system.cpu.commit.functionCalls                319993                       # Number of function calls committed.
system.cpu.commit.committedInstType_0::No_OpClass       567376      1.00%      1.00% # Class of committed instruction
system.cpu.commit.committedInstType_0::IntAlu     43234612     76.40%     77.41% # Class of committed instruction
system.cpu.commit.committedInstType_0::IntMult       253756      0.45%     77.85% # Class of committed instruction
system.cpu.commit.committedInstType_0::IntDiv       363390      0.64%     78.50% # Class of committed instruction
system.cpu.commit.committedInstType_0::FloatAdd       128023      0.23%     78.72% # Class of committed instruction
system.cpu.commit.committedInstType_0::FloatCmp            0      0.00%     78.72% # Class of committed instruction
system.cpu.commit.committedInstType_0::FloatCvt           32      0.00%     78.72% # Class of committed instruction
system.cpu.commit.committedInstType_0::FloatMult            0      0.00%     78.72% # Class of committed instruction
system.cpu.commit.committedInstType_0::FloatMultAcc            0      0.00%     78.72% # Class of committed instruction
system.cpu.commit.committedInstType_0::FloatDiv            0      0.00%     78.72% # Class of committed instruction
system.cpu.commit.committedInstType_0::FloatMisc            0      0.00%     78.72% # Class of committed instruction
system.cpu.commit.committedInstType_0::FloatSqrt            0      0.00%     78.72% # Class of committed instruction
system.cpu.commit.committedInstType_0::SimdAdd          398      0.00%     78.72% # Class of committed instruction
system.cpu.commit.committedInstType_0::SimdAddAcc            0      0.00%     78.72% # Class of committed instruction
system.cpu.commit.committedInstType_0::SimdAlu        32758      0.06%     78.78% # Class of committed instruction
system.cpu.commit.committedInstType_0::SimdCmp           20      0.00%     78.78% # Class of committed instruction
system.cpu.commit.committedInstType_0::SimdCvt        70786      0.13%     78.91% # Class of committed instruction
system.cpu.commit.committedInstType_0::SimdMisc       342092      0.60%     79.51% # Class of committed instruction
system.cpu.commit.committedInstType_0::SimdMult            0      0.00%     79.51% # Class of committed instruction
system.cpu.commit.committedInstType_0::SimdMultAcc            0      0.00%     79.51% # Class of committed instruction
system.cpu.commit.committedInstType_0::SimdShift          105      0.00%     79.51% # Class of committed instruction
system.cpu.commit.committedInstType_0::SimdShiftAcc            0      0.00%     79.51% # Class of committed instruction
system.cpu.commit.committedInstType_0::SimdDiv            0      0.00%     79.51% # Class of committed instruction
system.cpu.commit.committedInstType_0::SimdSqrt            0      0.00%     79.51% # Class of committed instruction
system.cpu.commit.committedInstType_0::SimdFloatAdd            0      0.00%     79.51% # Class of committed instruction
system.cpu.commit.committedInstType_0::SimdFloatAlu            0      0.00%     79.51% # Class of committed instruction
system.cpu.commit.committedInstType_0::SimdFloatCmp            0      0.00%     79.51% # Class of committed instruction
system.cpu.commit.committedInstType_0::SimdFloatCvt            4      0.00%     79.51% # Class of committed instruction
system.cpu.commit.committedInstType_0::SimdFloatDiv            0      0.00%     79.51% # Class of committed instruction
system.cpu.commit.committedInstType_0::SimdFloatMisc            0      0.00%     79.51% # Class of committed instruction
system.cpu.commit.committedInstType_0::SimdFloatMult            2      0.00%     79.51% # Class of committed instruction
system.cpu.commit.committedInstType_0::SimdFloatMultAcc            0      0.00%     79.51% # Class of committed instruction
system.cpu.commit.committedInstType_0::SimdFloatSqrt            0      0.00%     79.51% # Class of committed instruction
system.cpu.commit.committedInstType_0::SimdReduceAdd            0      0.00%     79.51% # Class of committed instruction
system.cpu.commit.committedInstType_0::SimdReduceAlu            0      0.00%     79.51% # Class of committed instruction
system.cpu.commit.committedInstType_0::SimdReduceCmp            0      0.00%     79.51% # Class of committed instruction
system.cpu.commit.committedInstType_0::SimdFloatReduceAdd            0      0.00%     79.51% # Class of committed instruction
system.cpu.commit.committedInstType_0::SimdFloatReduceCmp            0      0.00%     79.51% # Class of committed instruction
system.cpu.commit.committedInstType_0::SimdAes            0      0.00%     79.51% # Class of committed instruction
system.cpu.commit.committedInstType_0::SimdAesMix            0      0.00%     79.51% # Class of committed instruction
system.cpu.commit.committedInstType_0::SimdSha1Hash            0      0.00%     79.51% # Class of committed instruction
system.cpu.commit.committedInstType_0::SimdSha1Hash2            0      0.00%     79.51% # Class of committed instruction
system.cpu.commit.committedInstType_0::SimdSha256Hash            0      0.00%     79.51% # Class of committed instruction
system.cpu.commit.committedInstType_0::SimdSha256Hash2            0      0.00%     79.51% # Class of committed instruction
system.cpu.commit.committedInstType_0::SimdShaSigma2            0      0.00%     79.51% # Class of committed instruction
system.cpu.commit.committedInstType_0::SimdShaSigma3            0      0.00%     79.51% # Class of committed instruction
system.cpu.commit.committedInstType_0::SimdPredAlu            0      0.00%     79.51% # Class of committed instruction
system.cpu.commit.committedInstType_0::MemRead      6517033     11.52%     91.03% # Class of committed instruction
system.cpu.commit.committedInstType_0::MemWrite      4430951      7.83%     98.86% # Class of committed instruction
system.cpu.commit.committedInstType_0::FloatMemRead       198575      0.35%     99.21% # Class of committed instruction
system.cpu.commit.committedInstType_0::FloatMemWrite       447991      0.79%    100.00% # Class of committed instruction
system.cpu.commit.committedInstType_0::IprAccess            0      0.00%    100.00% # Class of committed instruction
system.cpu.commit.committedInstType_0::InstPrefetch            0      0.00%    100.00% # Class of committed instruction
system.cpu.commit.committedInstType_0::total     56587904                       # Class of committed instruction
system.cpu.commit.commitEligibleSamples       2871802                       # number cycles where commit BW limit reached
system.cpu.dcache.demand_hits::.cpu.data     10376374                       # number of demand (read+write) hits
system.cpu.dcache.demand_hits::total         10376374                       # number of demand (read+write) hits
system.cpu.dcache.overall_hits::.cpu.data     10376374                       # number of overall hits
system.cpu.dcache.overall_hits::total        10376374                       # number of overall hits
system.cpu.dcache.demand_misses::.cpu.data       184387                       # number of demand (read+write) misses
system.cpu.dcache.demand_misses::total         184387                       # number of demand (read+write) misses
system.cpu.dcache.overall_misses::.cpu.data       184387                       # number of overall misses
system.cpu.dcache.overall_misses::total        184387                       # number of overall misses
system.cpu.dcache.demand_miss_latency::.cpu.data  12006936999                       # number of demand (read+write) miss cycles
system.cpu.dcache.demand_miss_latency::total  12006936999                       # number of demand (read+write) miss cycles
system.cpu.dcache.overall_miss_latency::.cpu.data  12006936999                       # number of overall miss cycles
system.cpu.dcache.overall_miss_latency::total  12006936999                       # number of overall miss cycles
system.cpu.dcache.demand_accesses::.cpu.data     10560761                       # number of demand (read+write) accesses
system.cpu.dcache.demand_accesses::total     10560761                       # number of demand (read+write) accesses
system.cpu.dcache.overall_accesses::.cpu.data     10560761                       # number of overall (read+write) accesses
system.cpu.dcache.overall_accesses::total     10560761                       # number of overall (read+write) accesses
system.cpu.dcache.demand_miss_rate::.cpu.data     0.017460                       # miss rate for demand accesses
system.cpu.dcache.demand_miss_rate::total     0.017460                       # miss rate for demand accesses
system.cpu.dcache.overall_miss_rate::.cpu.data     0.017460                       # miss rate for overall accesses
system.cpu.dcache.overall_miss_rate::total     0.017460                       # miss rate for overall accesses
system.cpu.dcache.demand_avg_miss_latency::.cpu.data 65118.131967                       # average overall miss latency
system.cpu.dcache.demand_avg_miss_latency::total 65118.131967                       # average overall miss latency
system.cpu.dcache.overall_avg_miss_latency::.cpu.data 65118.131967                       # average overall miss latency
system.cpu.dcache.overall_avg_miss_latency::total 65118.131967                       # average overall miss latency
system.cpu.dcache.blocked_cycles::no_mshrs        18189                       # number of cycles access was blocked
system.cpu.dcache.blocked_cycles::no_targets            0                       # number of cycles access was blocked
system.cpu.dcache.blocked::no_mshrs               459                       # number of cycles access was blocked
system.cpu.dcache.blocked::no_targets               0                       # number of cycles access was blocked
system.cpu.dcache.avg_blocked_cycles::no_mshrs    39.627451                       # average number of cycles each access was blocked
system.cpu.dcache.avg_blocked_cycles::no_targets          nan                       # average number of cycles each access was blocked
system.cpu.dcache.writebacks::.writebacks       120961                       # number of writebacks
system.cpu.dcache.writebacks::total            120961                       # number of writebacks
system.cpu.dcache.demand_mshr_hits::.cpu.data        56628                       # number of demand (read+write) MSHR hits
system.cpu.dcache.demand_mshr_hits::total        56628                       # number of demand (read+write) MSHR hits
system.cpu.dcache.overall_mshr_hits::.cpu.data        56628                       # number of overall MSHR hits
system.cpu.dcache.overall_mshr_hits::total        56628                       # number of overall MSHR hits
system.cpu.dcache.demand_mshr_misses::.cpu.data       127759                       # number of demand (read+write) MSHR misses
system.cpu.dcache.demand_mshr_misses::total       127759                       # number of demand (read+write) MSHR misses
system.cpu.dcache.overall_mshr_misses::.cpu.data       127759                       # number of overall MSHR misses
system.cpu.dcache.overall_mshr_misses::total       127759                       # number of overall MSHR misses
system.cpu.dcache.demand_mshr_miss_latency::.cpu.data   9171980999                       # number of demand (read+write) MSHR miss cycles
system.cpu.dcache.demand_mshr_miss_latency::total   9171980999                       # number of demand (read+write) MSHR miss cycles
system.cpu.dcache.overall_mshr_miss_latency::.cpu.data   9171980999                       # number of overall MSHR miss cycles
system.cpu.dcache.overall_mshr_miss_latency::total   9171980999                       # number of overall MSHR miss cycles
system.cpu.dcache.demand_mshr_miss_rate::.cpu.data     0.012098                       # mshr miss rate for demand accesses
system.cpu.dcache.demand_mshr_miss_rate::total     0.012098                       # mshr miss rate for demand accesses
system.cpu.dcache.overall_mshr_miss_rate::.cpu.data     0.012098                       # mshr miss rate for overall accesses
system.cpu.dcache.overall_mshr_miss_rate::total     0.012098                       # mshr miss rate for overall accesses
system.cpu.dcache.demand_avg_mshr_miss_latency::.cpu.data 71791.271057                       # average overall mshr miss latency
system.cpu.dcache.demand_avg_mshr_miss_latency::total 71791.271057                       # average overall mshr miss latency
system.cpu.dcache.overall_avg_mshr_miss_latency::.cpu.data 71791.271057                       # average overall mshr miss latency
system.cpu.dcache.overall_avg_mshr_miss_latency::total 71791.271057                       # average overall mshr miss latency
system.cpu.dcache.replacements                 127244                       # number of replacements
system.cpu.dcache.ReadReq_hits::.cpu.data      5601302                       # number of ReadReq hits
system.cpu.dcache.ReadReq_hits::total         5601302                       # number of ReadReq hits
system.cpu.dcache.ReadReq_misses::.cpu.data        80514                       # number of ReadReq misses
system.cpu.dcache.ReadReq_misses::total         80514                       # number of ReadReq misses
system.cpu.dcache.ReadReq_miss_latency::.cpu.data   4413480000                       # number of ReadReq miss cycles
system.cpu.dcache.ReadReq_miss_latency::total   4413480000                       # number of ReadReq miss cycles
system.cpu.dcache.ReadReq_accesses::.cpu.data      5681816                       # number of ReadReq accesses(hits+misses)
system.cpu.dcache.ReadReq_accesses::total      5681816                       # number of ReadReq accesses(hits+misses)
system.cpu.dcache.ReadReq_miss_rate::.cpu.data     0.014170                       # miss rate for ReadReq accesses
system.cpu.dcache.ReadReq_miss_rate::total     0.014170                       # miss rate for ReadReq accesses
system.cpu.dcache.ReadReq_avg_miss_latency::.cpu.data 54816.305239                       # average ReadReq miss latency
system.cpu.dcache.ReadReq_avg_miss_latency::total 54816.305239                       # average ReadReq miss latency
system.cpu.dcache.ReadReq_mshr_hits::.cpu.data        48893                       # number of ReadReq MSHR hits
system.cpu.dcache.ReadReq_mshr_hits::total        48893                       # number of ReadReq MSHR hits
system.cpu.dcache.ReadReq_mshr_misses::.cpu.data        31621                       # number of ReadReq MSHR misses
system.cpu.dcache.ReadReq_mshr_misses::total        31621                       # number of ReadReq MSHR misses
system.cpu.dcache.ReadReq_mshr_miss_latency::.cpu.data   1828875500                       # number of ReadReq MSHR miss cycles
system.cpu.dcache.ReadReq_mshr_miss_latency::total   1828875500                       # number of ReadReq MSHR miss cycles
system.cpu.dcache.ReadReq_mshr_miss_rate::.cpu.data     0.005565                       # mshr miss rate for ReadReq accesses
system.cpu.dcache.ReadReq_mshr_miss_rate::total     0.005565                       # mshr miss rate for ReadReq accesses
system.cpu.dcache.ReadReq_avg_mshr_miss_latency::.cpu.data 57837.370735                       # average ReadReq mshr miss latency
system.cpu.dcache.ReadReq_avg_mshr_miss_latency::total 57837.370735                       # average ReadReq mshr miss latency
system.cpu.dcache.WriteReq_hits::.cpu.data      4775072                       # number of WriteReq hits
system.cpu.dcache.WriteReq_hits::total        4775072                       # number of WriteReq hits
system.cpu.dcache.WriteReq_misses::.cpu.data       103873                       # number of WriteReq misses
system.cpu.dcache.WriteReq_misses::total       103873                       # number of WriteReq misses
system.cpu.dcache.WriteReq_miss_latency::.cpu.data   7593456999                       # number of WriteReq miss cycles
system.cpu.dcache.WriteReq_miss_latency::total   7593456999                       # number of WriteReq miss cycles
system.cpu.dcache.WriteReq_accesses::.cpu.data      4878945                       # number of WriteReq accesses(hits+misses)
system.cpu.dcache.WriteReq_accesses::total      4878945                       # number of WriteReq accesses(hits+misses)
system.cpu.dcache.WriteReq_miss_rate::.cpu.data     0.021290                       # miss rate for WriteReq accesses
system.cpu.dcache.WriteReq_miss_rate::total     0.021290                       # miss rate for WriteReq accesses
system.cpu.dcache.WriteReq_avg_miss_latency::.cpu.data 73103.279957                       # average WriteReq miss latency
system.cpu.dcache.WriteReq_avg_miss_latency::total 73103.279957                       # average WriteReq miss latency
system.cpu.dcache.WriteReq_mshr_hits::.cpu.data         7735                       # number of WriteReq MSHR hits
system.cpu.dcache.WriteReq_mshr_hits::total         7735                       # number of WriteReq MSHR hits
system.cpu.dcache.WriteReq_mshr_misses::.cpu.data        96138                       # number of WriteReq MSHR misses
system.cpu.dcache.WriteReq_mshr_misses::total        96138                       # number of WriteReq MSHR misses
system.cpu.dcache.WriteReq_mshr_miss_latency::.cpu.data   7343105499                       # number of WriteReq MSHR miss cycles
system.cpu.dcache.WriteReq_mshr_miss_latency::total   7343105499                       # number of WriteReq MSHR miss cycles
system.cpu.dcache.WriteReq_mshr_miss_rate::.cpu.data     0.019705                       # mshr miss rate for WriteReq accesses
system.cpu.dcache.WriteReq_mshr_miss_rate::total     0.019705                       # mshr miss rate for WriteReq accesses
system.cpu.dcache.WriteReq_avg_mshr_miss_latency::.cpu.data 76380.884759                       # average WriteReq mshr miss latency
system.cpu.dcache.WriteReq_avg_mshr_miss_latency::total 76380.884759                       # average WriteReq mshr miss latency
system.cpu.dcache.power_state.pwrStateResidencyTicks::UNDEFINED  15787580000                       # Cumulative time (in ticks) in various power states
system.cpu.dcache.tags.tagsinuse           511.079486                       # Cycle average of tags in use
system.cpu.dcache.tags.total_refs            10504133                       # Total number of references to valid blocks.
system.cpu.dcache.tags.sampled_refs            127756                       # Sample count of references to valid blocks.
system.cpu.dcache.tags.avg_refs             82.220271                       # Average number of references to valid blocks.
system.cpu.dcache.tags.warmup_cycle            163000                       # Cycle when the warmup percentage was hit.
system.cpu.dcache.tags.occ_blocks::.cpu.data   511.079486                       # Average occupied blocks per requestor
system.cpu.dcache.tags.occ_percent::.cpu.data     0.998202                       # Average percentage of cache occupancy
system.cpu.dcache.tags.occ_percent::total     0.998202                       # Average percentage of cache occupancy
system.cpu.dcache.tags.occ_task_id_blocks::1024          512                       # Occupied blocks per task id
system.cpu.dcache.tags.age_task_id_blocks_1024::0           71                       # Occupied blocks per task id
system.cpu.dcache.tags.age_task_id_blocks_1024::1          342                       # Occupied blocks per task id
system.cpu.dcache.tags.age_task_id_blocks_1024::2           68                       # Occupied blocks per task id
system.cpu.dcache.tags.age_task_id_blocks_1024::3           29                       # Occupied blocks per task id
system.cpu.dcache.tags.age_task_id_blocks_1024::4            2                       # Occupied blocks per task id
system.cpu.dcache.tags.occ_task_id_percent::1024            1                       # Percentage of cache occupancy per task id
system.cpu.dcache.tags.tag_accesses          21249278                       # Number of tag accesses
system.cpu.dcache.tags.data_accesses         21249278                       # Number of data accesses
system.cpu.dcache.tags.power_state.pwrStateResidencyTicks::UNDEFINED  15787580000                       # Cumulative time (in ticks) in various power states
system.cpu.decode.idleCycles                  5893859                       # Number of cycles decode is idle
system.cpu.decode.blockedCycles              15658063                       # Number of cycles decode is blocked
system.cpu.decode.runCycles                   8940702                       # Number of cycles decode is running
system.cpu.decode.unblockCycles                860337                       # Number of cycles decode is unblocking
system.cpu.decode.squashCycles                 134077                       # Number of cycles decode is squashing
system.cpu.decode.branchResolved              2756983                       # Number of times decode resolved a  branch
system.cpu.decode.branchMispred                 32538                       # Number of times decode detected a branch misprediction
system.cpu.decode.decodedInsts               62277790                       # Number of instructions handled by decode
system.cpu.decode.squashedInsts                177985                       # Number of squashed instructions handled by decode
system.cpu.dtb.rdAccesses                     7107194                       # TLB accesses on read requests
system.cpu.dtb.wrAccesses                     4966399                       # TLB accesses on write requests
system.cpu.dtb.rdMisses                           930                       # TLB misses on read requests
system.cpu.dtb.wrMisses                         54631                       # TLB misses on write requests
system.cpu.dtb.walker.power_state.pwrStateResidencyTicks::UNDEFINED  15787580000                       # Cumulative time (in ticks) in various power states
system.cpu.dtb_walker_cache.blocked_cycles::no_mshrs            0                       # number of cycles access was blocked
system.cpu.dtb_walker_cache.blocked_cycles::no_targets            0                       # number of cycles access was blocked
system.cpu.dtb_walker_cache.blocked::no_mshrs            0                       # number of cycles access was blocked
system.cpu.dtb_walker_cache.blocked::no_targets            0                       # number of cycles access was blocked
system.cpu.dtb_walker_cache.avg_blocked_cycles::no_mshrs          nan                       # average number of cycles each access was blocked
system.cpu.dtb_walker_cache.avg_blocked_cycles::no_targets          nan                       # average number of cycles each access was blocked
system.cpu.dtb_walker_cache.replacements            0                       # number of replacements
system.cpu.dtb_walker_cache.power_state.pwrStateResidencyTicks::UNDEFINED  15787580000                       # Cumulative time (in ticks) in various power states
system.cpu.dtb_walker_cache.tags.tagsinuse            0                       # Cycle average of tags in use
system.cpu.dtb_walker_cache.tags.total_refs            0                       # Total number of references to valid blocks.
system.cpu.dtb_walker_cache.tags.sampled_refs            0                       # Sample count of references to valid blocks.
system.cpu.dtb_walker_cache.tags.avg_refs          nan                       # Average number of references to valid blocks.
system.cpu.dtb_walker_cache.tags.warmup_cycle            0                       # Cycle when the warmup percentage was hit.
system.cpu.dtb_walker_cache.tags.tag_accesses            0                       # Number of tag accesses
system.cpu.dtb_walker_cache.tags.data_accesses            0                       # Number of data accesses
system.cpu.dtb_walker_cache.tags.power_state.pwrStateResidencyTicks::UNDEFINED  15787580000                       # Cumulative time (in ticks) in various power states
system.cpu.fetch.icacheStallCycles            6546797                       # Number of cycles fetch is stalled on an Icache miss
system.cpu.fetch.insts                       33780677                       # Number of instructions fetch has processed
system.cpu.fetch.branches                     7076526                       # Number of branches that fetch encountered
system.cpu.fetch.predictedBranches            3346109                       # Number of branches that fetch has predicted taken
system.cpu.fetch.cycles                      24771575                       # Number of cycles fetch has run and was not squashing or blocked
system.cpu.fetch.squashCycles                  333200                       # Number of cycles fetch has spent squashing
system.cpu.fetch.miscStallCycles                  294                       # Number of cycles fetch has spent waiting on interrupts,or bad addresses, or out of MSHRs
system.cpu.fetch.pendingTrapStallCycles          1750                       # Number of stall cycles due to pending traps
system.cpu.fetch.pendingQuiesceStallCycles            9                       # Number of stall cycles due to pending quiesce instructions
system.cpu.fetch.icacheWaitRetryStallCycles           13                       # Number of stall cycles due to full MSHR
system.cpu.fetch.cacheLines                   5244405                       # Number of cache lines fetched
system.cpu.fetch.icacheSquashes                 46672                       # Number of outstanding Icache misses that were squashed
system.cpu.fetch.nisnDist::samples           31487038                       # Number of instructions fetched each cycle (Total)
system.cpu.fetch.nisnDist::mean              2.040148                       # Number of instructions fetched each cycle (Total)
system.cpu.fetch.nisnDist::stdev             3.176339                       # Number of instructions fetched each cycle (Total)
system.cpu.fetch.nisnDist::underflows               0      0.00%      0.00% # Number of instructions fetched each cycle (Total)
system.cpu.fetch.nisnDist::0                 20749592     65.90%     65.90% # Number of instructions fetched each cycle (Total)
system.cpu.fetch.nisnDist::1                   476200      1.51%     67.41% # Number of instructions fetched each cycle (Total)
system.cpu.fetch.nisnDist::2                  1150084      3.65%     71.06% # Number of instructions fetched each cycle (Total)
system.cpu.fetch.nisnDist::3                   925115      2.94%     74.00% # Number of instructions fetched each cycle (Total)
system.cpu.fetch.nisnDist::4                   634630      2.02%     76.02% # Number of instructions fetched each cycle (Total)
system.cpu.fetch.nisnDist::5                   714814      2.27%     78.29% # Number of instructions fetched each cycle (Total)
system.cpu.fetch.nisnDist::6                   773116      2.46%     80.74% # Number of instructions fetched each cycle (Total)
system.cpu.fetch.nisnDist::7                   572674      1.82%     82.56% # Number of instructions fetched each cycle (Total)
system.cpu.fetch.nisnDist::8                  5490813     17.44%    100.00% # Number of instructions fetched each cycle (Total)
system.cpu.fetch.nisnDist::overflows                0      0.00%    100.00% # Number of instructions fetched each cycle (Total)
system.cpu.fetch.nisnDist::min_value                0                       # Number of instructions fetched each cycle (Total)
system.cpu.fetch.nisnDist::max_value                8                       # Number of instructions fetched each cycle (Total)
system.cpu.fetch.nisnDist::total             31487038                       # Number of instructions fetched each cycle (Total)
system.cpu.fetch.branchRate                  0.224117                       # Number of branch fetches per cycle
system.cpu.fetch.rate                        1.069850                       # Number of inst fetches per cycle
system.cpu.icache.demand_hits::.cpu.inst      5194485                       # number of demand (read+write) hits
system.cpu.icache.demand_hits::total          5194485                       # number of demand (read+write) hits
system.cpu.icache.overall_hits::.cpu.inst      5194485                       # number of overall hits
system.cpu.icache.overall_hits::total         5194485                       # number of overall hits
system.cpu.icache.demand_misses::.cpu.inst        49919                       # number of demand (read+write) misses
system.cpu.icache.demand_misses::total          49919                       # number of demand (read+write) misses
system.cpu.icache.overall_misses::.cpu.inst        49919                       # number of overall misses
system.cpu.icache.overall_misses::total         49919                       # number of overall misses
system.cpu.icache.demand_miss_latency::.cpu.inst    748377500                       # number of demand (read+write) miss cycles
system.cpu.icache.demand_miss_latency::total    748377500                       # number of demand (read+write) miss cycles
system.cpu.icache.overall_miss_latency::.cpu.inst    748377500                       # number of overall miss cycles
system.cpu.icache.overall_miss_latency::total    748377500                       # number of overall miss cycles
system.cpu.icache.demand_accesses::.cpu.inst      5244404                       # number of demand (read+write) accesses
system.cpu.icache.demand_accesses::total      5244404                       # number of demand (read+write) accesses
system.cpu.icache.overall_accesses::.cpu.inst      5244404                       # number of overall (read+write) accesses
system.cpu.icache.overall_accesses::total      5244404                       # number of overall (read+write) accesses
system.cpu.icache.demand_miss_rate::.cpu.inst     0.009519                       # miss rate for demand accesses
system.cpu.icache.demand_miss_rate::total     0.009519                       # miss rate for demand accesses
system.cpu.icache.overall_miss_rate::.cpu.inst     0.009519                       # miss rate for overall accesses
system.cpu.icache.overall_miss_rate::total     0.009519                       # miss rate for overall accesses
system.cpu.icache.demand_avg_miss_latency::.cpu.inst 14991.836776                       # average overall miss latency
system.cpu.icache.demand_avg_miss_latency::total 14991.836776                       # average overall miss latency
system.cpu.icache.overall_avg_miss_latency::.cpu.inst 14991.836776                       # average overall miss latency
system.cpu.icache.overall_avg_miss_latency::total 14991.836776                       # average overall miss latency
system.cpu.icache.blocked_cycles::no_mshrs          359                       # number of cycles access was blocked
system.cpu.icache.blocked_cycles::no_targets            0                       # number of cycles access was blocked
system.cpu.icache.blocked::no_mshrs                 6                       # number of cycles access was blocked
system.cpu.icache.blocked::no_targets               0                       # number of cycles access was blocked
system.cpu.icache.avg_blocked_cycles::no_mshrs    59.833333                       # average number of cycles each access was blocked
system.cpu.icache.avg_blocked_cycles::no_targets          nan                       # average number of cycles each access was blocked
system.cpu.icache.writebacks::.writebacks        48889                       # number of writebacks
system.cpu.icache.writebacks::total             48889                       # number of writebacks
system.cpu.icache.demand_mshr_hits::.cpu.inst          521                       # number of demand (read+write) MSHR hits
system.cpu.icache.demand_mshr_hits::total          521                       # number of demand (read+write) MSHR hits
system.cpu.icache.overall_mshr_hits::.cpu.inst          521                       # number of overall MSHR hits
system.cpu.icache.overall_mshr_hits::total          521                       # number of overall MSHR hits
system.cpu.icache.demand_mshr_misses::.cpu.inst        49398                       # number of demand (read+write) MSHR misses
system.cpu.icache.demand_mshr_misses::total        49398                       # number of demand (read+write) MSHR misses
system.cpu.icache.overall_mshr_misses::.cpu.inst        49398                       # number of overall MSHR misses
system.cpu.icache.overall_mshr_misses::total        49398                       # number of overall MSHR misses
system.cpu.icache.demand_mshr_miss_latency::.cpu.inst    674462000                       # number of demand (read+write) MSHR miss cycles
system.cpu.icache.demand_mshr_miss_latency::total    674462000                       # number of demand (read+write) MSHR miss cycles
system.cpu.icache.overall_mshr_miss_latency::.cpu.inst    674462000                       # number of overall MSHR miss cycles
system.cpu.icache.overall_mshr_miss_latency::total    674462000                       # number of overall MSHR miss cycles
system.cpu.icache.demand_mshr_miss_rate::.cpu.inst     0.009419                       # mshr miss rate for demand accesses
system.cpu.icache.demand_mshr_miss_rate::total     0.009419                       # mshr miss rate for demand accesses
system.cpu.icache.overall_mshr_miss_rate::.cpu.inst     0.009419                       # mshr miss rate for overall accesses
system.cpu.icache.overall_mshr_miss_rate::total     0.009419                       # mshr miss rate for overall accesses
system.cpu.icache.demand_avg_mshr_miss_latency::.cpu.inst 13653.629702                       # average overall mshr miss latency
system.cpu.icache.demand_avg_mshr_miss_latency::total 13653.629702                       # average overall mshr miss latency
system.cpu.icache.overall_avg_mshr_miss_latency::.cpu.inst 13653.629702                       # average overall mshr miss latency
system.cpu.icache.overall_avg_mshr_miss_latency::total 13653.629702                       # average overall mshr miss latency
system.cpu.icache.replacements                  48889                       # number of replacements
system.cpu.icache.ReadReq_hits::.cpu.inst      5194485                       # number of ReadReq hits
system.cpu.icache.ReadReq_hits::total         5194485                       # number of ReadReq hits
system.cpu.icache.ReadReq_misses::.cpu.inst        49919                       # number of ReadReq misses
system.cpu.icache.ReadReq_misses::total         49919                       # number of ReadReq misses
system.cpu.icache.ReadReq_miss_latency::.cpu.inst    748377500                       # number of ReadReq miss cycles
system.cpu.icache.ReadReq_miss_latency::total    748377500                       # number of ReadReq miss cycles
system.cpu.icache.ReadReq_accesses::.cpu.inst      5244404                       # number of ReadReq accesses(hits+misses)
system.cpu.icache.ReadReq_accesses::total      5244404                       # number of ReadReq accesses(hits+misses)
system.cpu.icache.ReadReq_miss_rate::.cpu.inst     0.009519                       # miss rate for ReadReq accesses
system.cpu.icache.ReadReq_miss_rate::total     0.009519                       # miss rate for ReadReq accesses
system.cpu.icache.ReadReq_avg_miss_latency::.cpu.inst 14991.836776                       # average ReadReq miss latency
system.cpu.icache.ReadReq_avg_miss_latency::total 14991.836776                       # average ReadReq miss latency
system.cpu.icache.ReadReq_mshr_hits::.cpu.inst          521                       # number of ReadReq MSHR hits
system.cpu.icache.ReadReq_mshr_hits::total          521                       # number of ReadReq MSHR hits
system.cpu.icache.ReadReq_mshr_misses::.cpu.inst        49398                       # number of ReadReq MSHR misses
system.cpu.icache.ReadReq_mshr_misses::total        49398                       # number of ReadReq MSHR misses
system.cpu.icache.ReadReq_mshr_miss_latency::.cpu.inst    674462000                       # number of ReadReq MSHR miss cycles
system.cpu.icache.ReadReq_mshr_miss_latency::total    674462000                       # number of ReadReq MSHR miss cycles
system.cpu.icache.ReadReq_mshr_miss_rate::.cpu.inst     0.009419                       # mshr miss rate for ReadReq accesses
system.cpu.icache.ReadReq_mshr_miss_rate::total     0.009419                       # mshr miss rate for ReadReq accesses
system.cpu.icache.ReadReq_avg_mshr_miss_latency::.cpu.inst 13653.629702                       # average ReadReq mshr miss latency
system.cpu.icache.ReadReq_avg_mshr_miss_latency::total 13653.629702                       # average ReadReq mshr miss latency
system.cpu.icache.power_state.pwrStateResidencyTicks::UNDEFINED  15787580000                       # Cumulative time (in ticks) in various power states
system.cpu.icache.tags.tagsinuse           504.994328                       # Cycle average of tags in use
system.cpu.icache.tags.total_refs             5243883                       # Total number of references to valid blocks.
system.cpu.icache.tags.sampled_refs             49398                       # Sample count of references to valid blocks.
system.cpu.icache.tags.avg_refs            106.155776                       # Average number of references to valid blocks.
system.cpu.icache.tags.warmup_cycle             79500                       # Cycle when the warmup percentage was hit.
system.cpu.icache.tags.occ_blocks::.cpu.inst   504.994328                       # Average occupied blocks per requestor
system.cpu.icache.tags.occ_percent::.cpu.inst     0.986317                       # Average percentage of cache occupancy
system.cpu.icache.tags.occ_percent::total     0.986317                       # Average percentage of cache occupancy
system.cpu.icache.tags.occ_task_id_blocks::1024          506                       # Occupied blocks per task id
system.cpu.icache.tags.age_task_id_blocks_1024::0            2                       # Occupied blocks per task id
system.cpu.icache.tags.age_task_id_blocks_1024::2            4                       # Occupied blocks per task id
system.cpu.icache.tags.age_task_id_blocks_1024::3            4                       # Occupied blocks per task id
system.cpu.icache.tags.age_task_id_blocks_1024::4          496                       # Occupied blocks per task id
system.cpu.icache.tags.occ_task_id_percent::1024     0.988281                       # Percentage of cache occupancy per task id
system.cpu.icache.tags.tag_accesses          10538206                       # Number of tag accesses
system.cpu.icache.tags.data_accesses         10538206                       # Number of data accesses
system.cpu.icache.tags.power_state.pwrStateResidencyTicks::UNDEFINED  15787580000                       # Cumulative time (in ticks) in various power states
system.cpu.interrupts.clk_domain.clock           8000                       # Clock period in ticks
system.cpu.itb.rdAccesses                           0                       # TLB accesses on read requests
system.cpu.itb.wrAccesses                     5244666                       # TLB accesses on write requests
system.cpu.itb.rdMisses                             0                       # TLB misses on read requests
system.cpu.itb.wrMisses                           398                       # TLB misses on write requests
system.cpu.itb.walker.power_state.pwrStateResidencyTicks::UNDEFINED  15787580000                       # Cumulative time (in ticks) in various power states
system.cpu.itb_walker_cache.blocked_cycles::no_mshrs            0                       # number of cycles access was blocked
system.cpu.itb_walker_cache.blocked_cycles::no_targets            0                       # number of cycles access was blocked
system.cpu.itb_walker_cache.blocked::no_mshrs            0                       # number of cycles access was blocked
system.cpu.itb_walker_cache.blocked::no_targets            0                       # number of cycles access was blocked
system.cpu.itb_walker_cache.avg_blocked_cycles::no_mshrs          nan                       # average number of cycles each access was blocked
system.cpu.itb_walker_cache.avg_blocked_cycles::no_targets          nan                       # average number of cycles each access was blocked
system.cpu.itb_walker_cache.replacements            0                       # number of replacements
system.cpu.itb_walker_cache.power_state.pwrStateResidencyTicks::UNDEFINED  15787580000                       # Cumulative time (in ticks) in various power states
system.cpu.itb_walker_cache.tags.tagsinuse            0                       # Cycle average of tags in use
system.cpu.itb_walker_cache.tags.total_refs            0                       # Total number of references to valid blocks.
system.cpu.itb_walker_cache.tags.sampled_refs            0                       # Sample count of references to valid blocks.
system.cpu.itb_walker_cache.tags.avg_refs          nan                       # Average number of references to valid blocks.
system.cpu.itb_walker_cache.tags.warmup_cycle            0                       # Cycle when the warmup percentage was hit.
system.cpu.itb_walker_cache.tags.tag_accesses            0                       # Number of tag accesses
system.cpu.itb_walker_cache.tags.data_accesses            0                       # Number of data accesses
system.cpu.itb_walker_cache.tags.power_state.pwrStateResidencyTicks::UNDEFINED  15787580000                       # Cumulative time (in ticks) in various power states
system.cpu.lsq0.forwLoads                     1408889                       # Number of loads that had data forwarded from stores
system.cpu.lsq0.squashedLoads                  486657                       # Number of loads squashed
system.cpu.lsq0.ignoredResponses                17353                       # Number of memory responses ignored because the instruction is squashed
system.cpu.lsq0.memOrderViolation                 441                       # Number of memory ordering violations
system.cpu.lsq0.squashedStores                 218490                       # Number of stores squashed
system.cpu.lsq0.rescheduledLoads                15955                       # Number of loads that were rescheduled
system.cpu.lsq0.blockedByCache                    328                       # Number of times an access to memory failed due to the cache being blocked
system.cpu.power_state.pwrStateResidencyTicks::ON  15787580000                       # Cumulative time (in ticks) in various power states
system.cpu.rename.squashCycles                 134077                       # Number of cycles rename is squashing
system.cpu.rename.idleCycles                  6350950                       # Number of cycles rename is idle
system.cpu.rename.blockCycles                 4929510                       # Number of cycles rename is blocking
system.cpu.rename.serializeStallCycles           2616                       # count of cycles rename stalledfor serializing inst
system.cpu.rename.runCycles                   9318975                       # Number of cycles rename is running
system.cpu.rename.unblockCycles              10750910                       # Number of cycles rename is unblocking
system.cpu.rename.renamedInsts               61785439                       # Number of instructions processed by rename
system.cpu.rename.ROBFullEvents                 42692                       # Number of times rename has blocked due to ROB full
system.cpu.rename.IQFullEvents                 370591                       # Number of times rename has blocked due to IQ full
system.cpu.rename.LQFullEvents                    725                       # Number of times rename has blocked due to LQ full
system.cpu.rename.SQFullEvents               10236192                       # Number of times rename has blocked due to SQ full
system.cpu.rename.fullRegistersEvents              46                       # Number of times there has been no free registers
system.cpu.rename.renamedOperands            68884098                       # Number of destination operands rename has renamed
system.cpu.rename.lookups                   163123818                       # Number of register rename lookups that rename has made
system.cpu.rename.intLookups                 96984572                       # Number of integer rename lookups
system.cpu.rename.fpLookups                   1786036                       # Number of floating rename lookups
system.cpu.rename.committedMaps              62586896                       # Number of HB maps that are committed
system.cpu.rename.undoneMaps                  6297170                       # Number of HB maps that are undone due to squashing
system.cpu.rename.serializing                      40                       # count of serializing insts renamed
system.cpu.rename.tempSerializing                  22                       # count of temporary serializing insts renamed
system.cpu.rename.skidInsts                   5130979                       # count of insts added to the skid buffer
system.cpu.rob.reads                         88759111                       # The number of ROB reads
system.cpu.rob.writes                       122182395                       # The number of ROB writes
system.cpu.thread_0.numInsts                 30000004                       # Number of Instructions committed
system.cpu.thread_0.numOps                   56587904                       # Number of Ops committed
system.cpu.thread_0.numMemRefs                      0                       # Number of Memory References
system.cpu_clk_domain.clock                       500                       # Clock period in ticks
system.cpu_voltage_domain.voltage                   1                       # Voltage in Volts
system.l2.demand_hits::.cpu.inst                48039                       # number of demand (read+write) hits
system.l2.demand_hits::.cpu.data                19167                       # number of demand (read+write) hits
system.l2.demand_hits::total                    67206                       # number of demand (read+write) hits
system.l2.overall_hits::.cpu.inst               48039                       # number of overall hits
system.l2.overall_hits::.cpu.data               19167                       # number of overall hits
system.l2.overall_hits::total                   67206                       # number of overall hits
system.l2.demand_misses::.cpu.inst               1356                       # number of demand (read+write) misses
system.l2.demand_misses::.cpu.data             108589                       # number of demand (read+write) misses
system.l2.demand_misses::total                 109945                       # number of demand (read+write) misses
system.l2.overall_misses::.cpu.inst              1356                       # number of overall misses
system.l2.overall_misses::.cpu.data            108589                       # number of overall misses
system.l2.overall_misses::total                109945                       # number of overall misses
system.l2.demand_miss_latency::.cpu.inst     95380000                       # number of demand (read+write) miss cycles
system.l2.demand_miss_latency::.cpu.data   8773701000                       # number of demand (read+write) miss cycles
system.l2.demand_miss_latency::total       8869081000                       # number of demand (read+write) miss cycles
system.l2.overall_miss_latency::.cpu.inst     95380000                       # number of overall miss cycles
system.l2.overall_miss_latency::.cpu.data   8773701000                       # number of overall miss cycles
system.l2.overall_miss_latency::total      8869081000                       # number of overall miss cycles
system.l2.demand_accesses::.cpu.inst            49395                       # number of demand (read+write) accesses
system.l2.demand_accesses::.cpu.data           127756                       # number of demand (read+write) accesses
system.l2.demand_accesses::total               177151                       # number of demand (read+write) accesses
system.l2.overall_accesses::.cpu.inst           49395                       # number of overall (read+write) accesses
system.l2.overall_accesses::.cpu.data          127756                       # number of overall (read+write) accesses
system.l2.overall_accesses::total              177151                       # number of overall (read+write) accesses
system.l2.demand_miss_rate::.cpu.inst        0.027452                       # miss rate for demand accesses
system.l2.demand_miss_rate::.cpu.data        0.849972                       # miss rate for demand accesses
system.l2.demand_miss_rate::total            0.620629                       # miss rate for demand accesses
system.l2.overall_miss_rate::.cpu.inst       0.027452                       # miss rate for overall accesses
system.l2.overall_miss_rate::.cpu.data       0.849972                       # miss rate for overall accesses
system.l2.overall_miss_rate::total           0.620629                       # miss rate for overall accesses
system.l2.demand_avg_miss_latency::.cpu.inst 70339.233038                       # average overall miss latency
system.l2.demand_avg_miss_latency::.cpu.data 80797.327538                       # average overall miss latency
[...]
system.mem_ctrls.dram.readBursts               109945                       # Number of DRAM read bursts
system.mem_ctrls.dram.writeBursts               98239                       # Number of DRAM write bursts
system.mem_ctrls.dram.perBankRdBursts::0         6769                       # Per bank write bursts
system.mem_ctrls.dram.perBankRdBursts::1         6688                       # Per bank write bursts
system.mem_ctrls.dram.perBankRdBursts::2         6906                       # Per bank write bursts
system.mem_ctrls.dram.perBankRdBursts::3         6816                       # Per bank write bursts
system.mem_ctrls.dram.perBankRdBursts::4         6929                       # Per bank write bursts
system.mem_ctrls.dram.perBankRdBursts::5         7026                       # Per bank write bursts
system.mem_ctrls.dram.perBankRdBursts::6         6848                       # Per bank write bursts
system.mem_ctrls.dram.perBankRdBursts::7         6840                       # Per bank write bursts
system.mem_ctrls.dram.perBankRdBursts::8         7018                       # Per bank write bursts
system.mem_ctrls.dram.perBankRdBursts::9         6881                       # Per bank write bursts
system.mem_ctrls.dram.perBankRdBursts::10         6805                       # Per bank write bursts
system.mem_ctrls.dram.perBankRdBursts::11         6867                       # Per bank write bursts
system.mem_ctrls.dram.perBankRdBursts::12         6965                       # Per bank write bursts
system.mem_ctrls.dram.perBankRdBursts::13         6964                       # Per bank write bursts
system.mem_ctrls.dram.perBankRdBursts::14         6869                       # Per bank write bursts
system.mem_ctrls.dram.perBankRdBursts::15         6754                       # Per bank write bursts
system.mem_ctrls.dram.perBankWrBursts::0         6088                       # Per bank write bursts
system.mem_ctrls.dram.perBankWrBursts::1         6009                       # Per bank write bursts
system.mem_ctrls.dram.perBankWrBursts::2         6213                       # Per bank write bursts
system.mem_ctrls.dram.perBankWrBursts::3         6089                       # Per bank write bursts
system.mem_ctrls.dram.perBankWrBursts::4         6195                       # Per bank write bursts
system.mem_ctrls.dram.perBankWrBursts::5         6236                       # Per bank write bursts
system.mem_ctrls.dram.perBankWrBursts::6         6077                       # Per bank write bursts
system.mem_ctrls.dram.perBankWrBursts::7         6137                       # Per bank write bursts
system.mem_ctrls.dram.perBankWrBursts::8         6237                       # Per bank write bursts
system.mem_ctrls.dram.perBankWrBursts::9         6079                       # Per bank write bursts
system.mem_ctrls.dram.perBankWrBursts::10         6115                       # Per bank write bursts
system.mem_ctrls.dram.perBankWrBursts::11         6219                       # Per bank write bursts
system.mem_ctrls.dram.perBankWrBursts::12         6155                       # Per bank write bursts
system.mem_ctrls.dram.perBankWrBursts::13         6164                       # Per bank write bursts
system.mem_ctrls.dram.perBankWrBursts::14         6172                       # Per bank write bursts
system.mem_ctrls.dram.perBankWrBursts::15         6054                       # Per bank write bursts
system.mem_ctrls.dram.totQLat              2059707000                       # Total ticks spent queuing
system.mem_ctrls.dram.totBusLat             549725000                       # Total ticks spent in databus transfers
system.mem_ctrls.dram.totMemAccLat         4121175750                       # Total ticks spent from burst creation until serviced by the DRAM
system.mem_ctrls.dram.avgQLat                18733.98                       # Average queueing delay per DRAM burst
system.mem_ctrls.dram.avgBusLat               5000.00                       # Average bus latency per DRAM burst
system.mem_ctrls.dram.avgMemAccLat           37483.98                       # Average memory access latency per DRAM burst
system.mem_ctrls.dram.readRowHits               49370                       # Number of row buffer hits during reads
system.mem_ctrls.dram.writeRowHits              52239                       # Number of row buffer hits during writes
system.mem_ctrls.dram.readRowHitRate            44.90                       # Row buffer hit rate for reads
system.mem_ctrls.dram.writeRowHitRate           53.18                       # Row buffer hit rate for writes
system.mem_ctrls.dram.bytesPerActivate::samples       106564                       # Bytes accessed per row activation
system.mem_ctrls.dram.bytesPerActivate::mean   125.018130                       # Bytes accessed per row activation
system.mem_ctrls.dram.bytesPerActivate::gmean    94.968251                       # Bytes accessed per row activation
system.mem_ctrls.dram.bytesPerActivate::stdev   130.040387                       # Bytes accessed per row activation
system.mem_ctrls.dram.bytesPerActivate::0-127        70376     66.04%     66.04% # Bytes accessed per row activation
system.mem_ctrls.dram.bytesPerActivate::128-255        23180     21.75%     87.79% # Bytes accessed per row activation
system.mem_ctrls.dram.bytesPerActivate::256-383         5891      5.53%     93.32% # Bytes accessed per row activation
system.mem_ctrls.dram.bytesPerActivate::384-511         3288      3.09%     96.41% # Bytes accessed per row activation
system.mem_ctrls.dram.bytesPerActivate::512-639         2217      2.08%     98.49% # Bytes accessed per row activation
system.mem_ctrls.dram.bytesPerActivate::640-767          818      0.77%     99.25% # Bytes accessed per row activation
system.mem_ctrls.dram.bytesPerActivate::768-895          421      0.40%     99.65% # Bytes accessed per row activation
system.mem_ctrls.dram.bytesPerActivate::896-1023          145      0.14%     99.79% # Bytes accessed per row activation
system.mem_ctrls.dram.bytesPerActivate::1024-1151          228      0.21%    100.00% # Bytes accessed per row activation
system.mem_ctrls.dram.bytesPerActivate::total       106564                       # Bytes accessed per row activation
system.mem_ctrls.dram.bytesRead               7036480                       # Total number of bytes read from DRAM
system.mem_ctrls.dram.bytesWritten            6287296                       # Total number of bytes written to DRAM
system.mem_ctrls.dram.avgRdBW              445.697187                       # Average DRAM read bandwidth in MiBytes/s
system.mem_ctrls.dram.avgWrBW              398.243176                       # Average DRAM write bandwidth in MiBytes/s
system.mem_ctrls.dram.peakBW                 12800.00                       # Theoretical peak bandwidth in MiByte/s
system.mem_ctrls.dram.busUtil                    6.59                       # Data bus utilization in percentage
system.mem_ctrls.dram.busUtilRead                3.48                       # Data bus utilization in percentage for reads
system.mem_ctrls.dram.busUtilWrite               3.11                       # Data bus utilization in percentage for writes
system.mem_ctrls.dram.pageHitRate               48.81                       # Row buffer hit rate, read and write combined
system.mem_ctrls.dram.power_state.pwrStateResidencyTicks::UNDEFINED  15787580000                       # Cumulative time (in ticks) in various power states
system.mem_ctrls.dram.rank0.actEnergy       380354940                       # Energy for activate commands per rank (pJ)
system.mem_ctrls.dram.rank0.preEnergy       202144470                       # Energy for precharge commands per rank (pJ)
system.mem_ctrls.dram.rank0.readEnergy      391429080                       # Energy for read commands per rank (pJ)
system.mem_ctrls.dram.rank0.writeEnergy     256009680                       # Energy for write commands per rank (pJ)
system.mem_ctrls.dram.rank0.refreshEnergy 1245875280.000000                       # Energy for refresh commands per rank (pJ)
system.mem_ctrls.dram.rank0.actBackEnergy   6991950600                       # Energy for active background per rank (pJ)
system.mem_ctrls.dram.rank0.preBackEnergy    174472320                       # Energy for precharge background per rank (pJ)
system.mem_ctrls.dram.rank0.actPowerDownEnergy            0                       # Energy for active power-down per rank (pJ)
system.mem_ctrls.dram.rank0.prePowerDownEnergy            0                       # Energy for precharge power-down per rank (pJ)
system.mem_ctrls.dram.rank0.selfRefreshEnergy            0                       # Energy for self refresh per rank (pJ)
system.mem_ctrls.dram.rank0.totalEnergy    9642236370                       # Total energy per rank (pJ)
system.mem_ctrls.dram.rank0.averagePower   610.748219                       # Core power per rank (mW)
system.mem_ctrls.dram.rank0.totalIdleTime            0                       # Total Idle time Per DRAM Rank
system.mem_ctrls.dram.rank0.pwrStateTime::IDLE    396284750                       # Time in different power states
system.mem_ctrls.dram.rank0.pwrStateTime::REF    527020000                       # Time in different power states
system.mem_ctrls.dram.rank0.pwrStateTime::SREF            0                       # Time in different power states
system.mem_ctrls.dram.rank0.pwrStateTime::PRE_PDN            0                       # Time in different power states
system.mem_ctrls.dram.rank0.pwrStateTime::ACT  14864275250                       # Time in different power states
system.mem_ctrls.dram.rank0.pwrStateTime::ACT_PDN            0                       # Time in different power states
system.mem_ctrls.dram.rank1.actEnergy       380590560                       # Energy for activate commands per rank (pJ)
system.mem_ctrls.dram.rank1.preEnergy       202265910                       # Energy for precharge commands per rank (pJ)
system.mem_ctrls.dram.rank1.readEnergy      393578220                       # Energy for read commands per rank (pJ)
system.mem_ctrls.dram.rank1.writeEnergy     256797900                       # Energy for write commands per rank (pJ)
system.mem_ctrls.dram.rank1.refreshEnergy 1245875280.000000                       # Energy for refresh commands per rank (pJ)
system.mem_ctrls.dram.rank1.actBackEnergy   6996653670                       # Energy for active background per rank (pJ)
system.mem_ctrls.dram.rank1.preBackEnergy    170511840                       # Energy for precharge background per rank (pJ)
system.mem_ctrls.dram.rank1.actPowerDownEnergy            0                       # Energy for active power-down per rank (pJ)
system.mem_ctrls.dram.rank1.prePowerDownEnergy            0                       # Energy for precharge power-down per rank (pJ)
system.mem_ctrls.dram.rank1.selfRefreshEnergy            0                       # Energy for self refresh per rank (pJ)
system.mem_ctrls.dram.rank1.totalEnergy    9646273380                       # Total energy per rank (pJ)
system.mem_ctrls.dram.rank1.averagePower   611.003927                       # Core power per rank (mW)
system.mem_ctrls.dram.rank1.totalIdleTime            0                       # Total Idle time Per DRAM Rank
system.mem_ctrls.dram.rank1.pwrStateTime::IDLE    385700250                       # Time in different power states
system.mem_ctrls.dram.rank1.pwrStateTime::REF    527020000                       # Time in different power states
system.mem_ctrls.dram.rank1.pwrStateTime::SREF            0                       # Time in different power states
system.mem_ctrls.dram.rank1.pwrStateTime::PRE_PDN            0                       # Time in different power states
system.mem_ctrls.dram.rank1.pwrStateTime::ACT  14874859750                       # Time in different power states
system.mem_ctrls.dram.rank1.pwrStateTime::ACT_PDN            0                       # Time in different power states
system.mem_ctrls.power_state.pwrStateResidencyTicks::UNDEFINED  15787580000                       # Cumulative time (in ticks) in various power states
system.membus.trans_dist::ReadResp              23848                       # Transaction distribution
system.membus.trans_dist::WritebackDirty        98259                       # Transaction distribution
system.membus.trans_dist::CleanEvict             2958                       # Transaction distribution
system.membus.trans_dist::ReadExReq             86097                       # Transaction distribution
system.membus.trans_dist::ReadExResp            86097                       # Transaction distribution
system.membus.trans_dist::ReadSharedReq         23848                       # Transaction distribution
system.membus.pkt_count_system.l2.mem_side_port::system.mem_ctrls.port       321107                       # Packet count per connected requestor and responder (bytes)
system.membus.pkt_count_system.l2.mem_side_port::total       321107                       # Packet count per connected requestor and responder (bytes)
system.membus.pkt_count::total                 321107                       # Packet count per connected requestor and responder (bytes)
system.membus.pkt_size_system.l2.mem_side_port::system.mem_ctrls.port     13325056                       # Cumulative packet size per connected requestor and responder (bytes)
system.membus.pkt_size_system.l2.mem_side_port::total     13325056                       # Cumulative packet size per connected requestor and responder (bytes)
system.membus.pkt_size::total                13325056                       # Cumulative packet size per connected requestor and responder (bytes)
system.membus.snoops                                0                       # Total snoops (count)
system.membus.snoopTraffic                          0                       # Total snoop traffic (bytes)
system.membus.snoop_fanout::samples            109945                       # Request fanout histogram
system.membus.snoop_fanout::mean                    0                       # Request fanout histogram
system.membus.snoop_fanout::stdev                   0                       # Request fanout histogram
system.membus.snoop_fanout::underflows              0      0.00%      0.00% # Request fanout histogram
system.membus.snoop_fanout::0                  109945    100.00%    100.00% # Request fanout histogram
system.membus.snoop_fanout::1                       0      0.00%    100.00% # Request fanout histogram
system.membus.snoop_fanout::overflows               0      0.00%    100.00% # Request fanout histogram
system.membus.snoop_fanout::min_value               0                       # Request fanout histogram
system.membus.snoop_fanout::max_value               0                       # Request fanout histogram
system.membus.snoop_fanout::total              109945                       # Request fanout histogram
system.membus.power_state.pwrStateResidencyTicks::UNDEFINED  15787580000                       # Cumulative time (in ticks) in various power states
system.membus.reqLayer2.occupancy           151049500                       # Layer occupancy (ticks)
system.membus.reqLayer2.utilization               1.0                       # Layer utilization (%)
system.membus.respLayer1.occupancy          137431250                       # Layer occupancy (ticks)
system.membus.respLayer1.utilization              0.9                       # Layer utilization (%)
system.tol2bus.trans_dist::ReadResp             81007                       # Transaction distribution
system.tol2bus.trans_dist::WritebackDirty       219220                       # Transaction distribution
system.tol2bus.trans_dist::WritebackClean        48889                       # Transaction distribution
system.tol2bus.trans_dist::CleanEvict            9938                       # Transaction distribution
system.tol2bus.trans_dist::UpgradeReq               3                       # Transaction distribution
system.tol2bus.trans_dist::UpgradeResp              3                       # Transaction distribution
system.tol2bus.trans_dist::ReadExReq            96147                       # Transaction distribution
system.tol2bus.trans_dist::ReadExResp           96147                       # Transaction distribution
system.tol2bus.trans_dist::ReadCleanReq         49398                       # Transaction distribution
system.tol2bus.trans_dist::ReadSharedReq        31609                       # Transaction distribution
system.tol2bus.pkt_count_system.cpu.icache.mem_side_port::system.l2.cpu_side_port       147682                       # Packet count per connected requestor and responder (bytes)
system.tol2bus.pkt_count_system.cpu.dcache.mem_side_port::system.l2.cpu_side_port       382762                       # Packet count per connected requestor and responder (bytes)
system.tol2bus.pkt_count::total                530444                       # Packet count per connected requestor and responder (bytes)
system.tol2bus.pkt_size_system.cpu.icache.mem_side_port::system.l2.cpu_side_port      6290176                       # Cumulative packet size per connected requestor and responder (bytes)
system.tol2bus.pkt_size_system.cpu.dcache.mem_side_port::system.l2.cpu_side_port     15917888                       # Cumulative packet size per connected requestor and responder (bytes)
system.tol2bus.pkt_size::total               22208064                       # Cumulative packet size per connected requestor and responder (bytes)
system.tol2bus.snoops                          101917                       # Total snoops (count)
system.tol2bus.snoopTraffic                   6288768                       # Total snoop traffic (bytes)
system.tol2bus.snoop_fanout::samples           279071                       # Request fanout histogram
system.tol2bus.snoop_fanout::mean            0.002741                       # Request fanout histogram
system.tol2bus.snoop_fanout::stdev           0.053101                       # Request fanout histogram
system.tol2bus.snoop_fanout::underflows             0      0.00%      0.00% # Request fanout histogram
system.tol2bus.snoop_fanout::0                 278318     99.73%     99.73% # Request fanout histogram
system.tol2bus.snoop_fanout::1                    741      0.27%    100.00% # Request fanout histogram
system.tol2bus.snoop_fanout::2                     12      0.00%    100.00% # Request fanout histogram
system.tol2bus.snoop_fanout::3                      0      0.00%    100.00% # Request fanout histogram
system.tol2bus.snoop_fanout::4                      0      0.00%    100.00% # Request fanout histogram
system.tol2bus.snoop_fanout::overflows              0      0.00%    100.00% # Request fanout histogram
system.tol2bus.snoop_fanout::min_value              0                       # Request fanout histogram
system.tol2bus.snoop_fanout::max_value              2                       # Request fanout histogram
system.tol2bus.snoop_fanout::total             279071                       # Request fanout histogram
system.tol2bus.power_state.pwrStateResidencyTicks::UNDEFINED  15787580000                       # Cumulative time (in ticks) in various power states
system.tol2bus.reqLayer0.occupancy          346495000                       # Layer occupancy (ticks)
system.tol2bus.reqLayer0.utilization              2.2                       # Layer utilization (%)
system.tol2bus.respLayer0.occupancy          74097998                       # Layer occupancy (ticks)
system.tol2bus.respLayer0.utilization             0.5                       # Layer utilization (%)
system.tol2bus.respLayer1.occupancy         191635500                       # Layer occupancy (ticks)
system.tol2bus.respLayer1.utilization             1.2                       # Layer utilization (%)
system.voltage_domain.voltage                       1                       # Voltage in Volts

---------- End Simulation Statistics   ----------
