
---------- Begin Simulation Statistics ----------
final_tick                                 2959598000                       # Number of ticks from beginning of simulation (restored from checkpoints and never reset)
host_inst_rate                                 103391                       # Simulator instruction rate (inst/s)
host_mem_usage                                 705952                       # Number of bytes of host memory used
host_op_rate                                   185191                       # Simulator op (including micro ops) rate (op/s)
host_seconds                                    96.72                       # Real time elapsed on the host
host_tick_rate                               30599597                       # Simulator tick rate (ticks/s)
sim_freq                                 1000000000000                       # Frequency of simulated ticks
sim_insts                                    10000000                       # Number of instructions simulated
sim_ops                                      17911679                       # Number of ops (including micro ops) simulated
sim_seconds                                  0.002960                       # Number of seconds simulated
sim_ticks                                  2959598000                       # Number of ticks simulated
system.cpu.cc_regfile_reads                   4883606                       # number of cc regfile reads
system.cpu.cc_regfile_writes                  4255172                       # number of cc regfile writes
system.cpu.committedInsts                    10000000                       # Number of Instructions Simulated
system.cpu.committedOps                      17911679                       # Number of Ops (including micro ops) Simulated
system.cpu.cpi                               0.591920                       # CPI: Cycles Per Instruction
system.cpu.cpi_total                         0.591920                       # CPI: Total CPI of All Threads
system.cpu.fp_regfile_reads                  12295883                       # number of floating regfile reads
system.cpu.fp_regfile_writes                  6923012                       # number of floating regfile writes
system.cpu.idleCycles                          142033                       # Total number of cycles that the CPU has spent unscheduled due to idling
system.cpu.iew.branchMispredicts                18818                       # Number of branch mispredicts detected at execute
system.cpu.iew.exec_branches                  1115461                       # Number of branches executed
system.cpu.iew.exec_nop                             0                       # number of nop insts executed
system.cpu.iew.exec_rate                     3.094694                       # Inst execution rate
system.cpu.iew.exec_refs                      2789361                       # number of memory reference insts executed
system.cpu.iew.exec_stores                     485589                       # Number of stores executed
system.cpu.iew.exec_swp                             0                       # number of swp insts executed
system.cpu.iew.iewBlockCycles                  189953                       # Number of cycles IEW is blocking
system.cpu.iew.iewDispLoadInsts               2321557                       # Number of dispatched load instructions
system.cpu.iew.iewDispNonSpecInsts                 21                       # Number of dispatched non-speculative instructions
system.cpu.iew.iewDispSquashedInsts              1568                       # Number of squashed instructions skipped by dispatch
system.cpu.iew.iewDispStoreInsts               497111                       # Number of dispatched store instructions
system.cpu.iew.iewDispatchedInsts            18747041                       # Number of instructions dispatched to IQ
system.cpu.iew.iewExecLoadInsts               2303772                       # Number of load instructions executed
system.cpu.iew.iewExecSquashedInsts             23980                       # Number of squashed instructions skipped in execute
system.cpu.iew.iewExecutedInsts              18318106                       # Number of executed instructions
system.cpu.iew.iewIQFullEvents                   1315                       # Number of times the IQ has become full, causing a stall
system.cpu.iew.iewIdleCycles                        0                       # Number of cycles IEW is idle
system.cpu.iew.iewLSQFullEvents                 43319                       # Number of times the LSQ has become full, causing a stall
system.cpu.iew.iewSquashCycles                  16817                       # Number of cycles IEW is squashing
system.cpu.iew.iewUnblockCycles                 45194                       # Number of cycles IEW is unblocking
system.cpu.iew.memOrderViolationEvents            149                       # Number of memory order violations
system.cpu.iew.predictedNotTakenIncorrect        11460                       # Number of branches that were predicted not taken incorrectly
system.cpu.iew.predictedTakenIncorrect           7358                       # Number of branches that were predicted taken incorrectly
system.cpu.iew.wb_consumers                  25208524                       # num instructions consuming a value
system.cpu.iew.wb_count                      18303124                       # cumulative count of insts written-back
system.cpu.iew.wb_fanout                     0.570234                       # average fanout of values written-back
system.cpu.iew.wb_producers                  14374756                       # num instructions producing a value
system.cpu.iew.wb_rate                       3.092163                       # insts written-back per cycle
system.cpu.iew.wb_sent                       18309115                       # cumulative count of insts sent to commit
system.cpu.int_regfile_reads                 18755088                       # number of integer regfile reads
system.cpu.int_regfile_writes                 9701845                       # number of integer regfile writes
system.cpu.ipc                               1.689418                       # IPC: Instructions Per Cycle
system.cpu.ipc_total                         1.689418                       # IPC: Total IPC of All Threads
system.cpu.iq.FU_type_0::No_OpClass            317556      1.73%      1.73% # Type of FU issued
system.cpu.iq.FU_type_0::IntAlu               9889731     53.92%     55.65% # Type of FU issued
system.cpu.iq.FU_type_0::IntMult                 2071      0.01%     55.66% # Type of FU issued
system.cpu.iq.FU_type_0::IntDiv                106062      0.58%     56.24% # Type of FU issued
system.cpu.iq.FU_type_0::FloatAdd              424345      2.31%     58.55% # Type of FU issued
system.cpu.iq.FU_type_0::FloatCmp                   0      0.00%     58.55% # Type of FU issued
system.cpu.iq.FU_type_0::FloatCvt                  32      0.00%     58.55% # Type of FU issued
system.cpu.iq.FU_type_0::FloatMult                  0      0.00%     58.55% # Type of FU issued
system.cpu.iq.FU_type_0::FloatMultAcc               0      0.00%     58.55% # Type of FU issued
system.cpu.iq.FU_type_0::FloatDiv                   0      0.00%     58.55% # Type of FU issued
system.cpu.iq.FU_type_0::FloatMisc                  0      0.00%     58.55% # Type of FU issued
system.cpu.iq.FU_type_0::FloatSqrt                  0      0.00%     58.55% # Type of FU issued
system.cpu.iq.FU_type_0::SimdAdd                 3050      0.02%     58.57% # Type of FU issued
system.cpu.iq.FU_type_0::SimdAddAcc                 0      0.00%     58.57% # Type of FU issued
system.cpu.iq.FU_type_0::SimdAlu               851393      4.64%     63.21% # Type of FU issued
system.cpu.iq.FU_type_0::SimdCmp                   18      0.00%     63.21% # Type of FU issued
system.cpu.iq.FU_type_0::SimdCvt                 7118      0.04%     63.25% # Type of FU issued
system.cpu.iq.FU_type_0::SimdMisc              848302      4.62%     67.87% # Type of FU issued
system.cpu.iq.FU_type_0::SimdMult                  64      0.00%     67.88% # Type of FU issued
system.cpu.iq.FU_type_0::SimdMultAcc                0      0.00%     67.88% # Type of FU issued
system.cpu.iq.FU_type_0::SimdShift               2469      0.01%     67.89% # Type of FU issued
system.cpu.iq.FU_type_0::SimdShiftAcc               0      0.00%     67.89% # Type of FU issued
system.cpu.iq.FU_type_0::SimdDiv                    0      0.00%     67.89% # Type of FU issued
system.cpu.iq.FU_type_0::SimdSqrt                   0      0.00%     67.89% # Type of FU issued
system.cpu.iq.FU_type_0::SimdFloatAdd         1405600      7.66%     75.55% # Type of FU issued
system.cpu.iq.FU_type_0::SimdFloatAlu               0      0.00%     75.55% # Type of FU issued
system.cpu.iq.FU_type_0::SimdFloatCmp               0      0.00%     75.55% # Type of FU issued
system.cpu.iq.FU_type_0::SimdFloatCvt          702999      3.83%     79.38% # Type of FU issued
system.cpu.iq.FU_type_0::SimdFloatDiv               2      0.00%     79.38% # Type of FU issued
system.cpu.iq.FU_type_0::SimdFloatMisc              0      0.00%     79.38% # Type of FU issued
system.cpu.iq.FU_type_0::SimdFloatMult         984233      5.37%     84.75% # Type of FU issued
system.cpu.iq.FU_type_0::SimdFloatMultAcc            0      0.00%     84.75% # Type of FU issued
system.cpu.iq.FU_type_0::SimdFloatSqrt              0      0.00%     84.75% # Type of FU issued
system.cpu.iq.FU_type_0::SimdReduceAdd              0      0.00%     84.75% # Type of FU issued
system.cpu.iq.FU_type_0::SimdReduceAlu              0      0.00%     84.75% # Type of FU issued
system.cpu.iq.FU_type_0::SimdReduceCmp              0      0.00%     84.75% # Type of FU issued
system.cpu.iq.FU_type_0::SimdFloatReduceAdd            0      0.00%     84.75% # Type of FU issued
system.cpu.iq.FU_type_0::SimdFloatReduceCmp            0      0.00%     84.75% # Type of FU issued
system.cpu.iq.FU_type_0::SimdAes                    0      0.00%     84.75% # Type of FU issued
system.cpu.iq.FU_type_0::SimdAesMix                 0      0.00%     84.75% # Type of FU issued
system.cpu.iq.FU_type_0::SimdSha1Hash               0      0.00%     84.75% # Type of FU issued
system.cpu.iq.FU_type_0::SimdSha1Hash2              0      0.00%     84.75% # Type of FU issued
system.cpu.iq.FU_type_0::SimdSha256Hash             0      0.00%     84.75% # Type of FU issued
system.cpu.iq.FU_type_0::SimdSha256Hash2            0      0.00%     84.75% # Type of FU issued
system.cpu.iq.FU_type_0::SimdShaSigma2              0      0.00%     84.75% # Type of FU issued
system.cpu.iq.FU_type_0::SimdShaSigma3              0      0.00%     84.75% # Type of FU issued
system.cpu.iq.FU_type_0::SimdPredAlu                0      0.00%     84.75% # Type of FU issued
system.cpu.iq.FU_type_0::MemRead               752659      4.10%     88.85% # Type of FU issued
system.cpu.iq.FU_type_0::MemWrite              479199      2.61%     91.47% # Type of FU issued
system.cpu.iq.FU_type_0::FloatMemRead         1557545      8.49%     99.96% # Type of FU issued
system.cpu.iq.FU_type_0::FloatMemWrite           7640      0.04%    100.00% # Type of FU issued
system.cpu.iq.FU_type_0::IprAccess                  0      0.00%    100.00% # Type of FU issued
system.cpu.iq.FU_type_0::InstPrefetch               0      0.00%    100.00% # Type of FU issued
system.cpu.iq.FU_type_0::total               18342088                       # Type of FU issued
system.cpu.iq.fp_alu_accesses                 7358709                       # Number of floating point alu accesses
system.cpu.iq.fp_inst_queue_reads            14717233                       # Number of floating instruction queue reads
system.cpu.iq.fp_inst_queue_wakeup_accesses      7354894                       # Number of floating instruction queue wakeup accesses
system.cpu.iq.fp_inst_queue_writes            7407501                       # Number of floating instruction queue writes
system.cpu.iq.fu_busy_cnt                      159990                       # FU busy when requested
system.cpu.iq.fu_busy_rate                   0.008723                       # FU busy rate (busy events/executed inst)
system.cpu.iq.fu_full::No_OpClass                   0      0.00%      0.00% # attempts to use FU when none available
system.cpu.iq.fu_full::IntAlu                  157354     98.35%     98.35% # attempts to use FU when none available
system.cpu.iq.fu_full::IntMult                      0      0.00%     98.35% # attempts to use FU when none available
system.cpu.iq.fu_full::IntDiv                       0      0.00%     98.35% # attempts to use FU when none available
system.cpu.iq.fu_full::FloatAdd                     0      0.00%     98.35% # attempts to use FU when none available
system.cpu.iq.fu_full::FloatCmp                     0      0.00%     98.35% # attempts to use FU when none available
system.cpu.iq.fu_full::FloatCvt                     0      0.00%     98.35% # attempts to use FU when none available
system.cpu.iq.fu_full::FloatMult                    0      0.00%     98.35% # attempts to use FU when none available
system.cpu.iq.fu_full::FloatMultAcc                 0      0.00%     98.35% # attempts to use FU when none available
system.cpu.iq.fu_full::FloatDiv                     0      0.00%     98.35% # attempts to use FU when none available
system.cpu.iq.fu_full::FloatMisc                    0      0.00%     98.35% # attempts to use FU when none available
system.cpu.iq.fu_full::FloatSqrt                    0      0.00%     98.35% # attempts to use FU when none available
system.cpu.iq.fu_full::SimdAdd                      1      0.00%     98.35% # attempts to use FU when none available
system.cpu.iq.fu_full::SimdAddAcc                   0      0.00%     98.35% # attempts to use FU when none available
system.cpu.iq.fu_full::SimdAlu                     79      0.05%     98.40% # attempts to use FU when none available
system.cpu.iq.fu_full::SimdCmp                      0      0.00%     98.40% # attempts to use FU when none available
system.cpu.iq.fu_full::SimdCvt                     25      0.02%     98.42% # attempts to use FU when none available
system.cpu.iq.fu_full::SimdMisc                     7      0.00%     98.42% # attempts to use FU when none available
system.cpu.iq.fu_full::SimdMult                     0      0.00%     98.42% # attempts to use FU when none available
system.cpu.iq.fu_full::SimdMultAcc                  0      0.00%     98.42% # attempts to use FU when none available
system.cpu.iq.fu_full::SimdShift                   55      0.03%     98.46% # attempts to use FU when none available
system.cpu.iq.fu_full::SimdShiftAcc                 0      0.00%     98.46% # attempts to use FU when none available
system.cpu.iq.fu_full::SimdDiv                      0      0.00%     98.46% # attempts to use FU when none available
system.cpu.iq.fu_full::SimdSqrt                     0      0.00%     98.46% # attempts to use FU when none available
system.cpu.iq.fu_full::SimdFloatAdd                 0      0.00%     98.46% # attempts to use FU when none available
system.cpu.iq.fu_full::SimdFloatAlu                 0      0.00%     98.46% # attempts to use FU when none available
system.cpu.iq.fu_full::SimdFloatCmp                 0      0.00%     98.46% # attempts to use FU when none available
system.cpu.iq.fu_full::SimdFloatCvt                 0      0.00%     98.46% # attempts to use FU when none available
system.cpu.iq.fu_full::SimdFloatDiv                 0      0.00%     98.46% # attempts to use FU when none available
system.cpu.iq.fu_full::SimdFloatMisc                0      0.00%     98.46% # attempts to use FU when none available
system.cpu.iq.fu_full::SimdFloatMult                0      0.00%     98.46% # attempts to use FU when none available
system.cpu.iq.fu_full::SimdFloatMultAcc             0      0.00%     98.46% # attempts to use FU when none available
system.cpu.iq.fu_full::SimdFloatSqrt                0      0.00%     98.46% # attempts to use FU when none available
system.cpu.iq.fu_full::SimdReduceAdd                0      0.00%     98.46% # attempts to use FU when none available
system.cpu.iq.fu_full::SimdReduceAlu                0      0.00%     98.46% # attempts to use FU when none available
system.cpu.iq.fu_full::SimdReduceCmp                0      0.00%     98.46% # attempts to use FU when none available
system.cpu.iq.fu_full::SimdFloatReduceAdd            0      0.00%     98.46% # attempts to use FU when none available
system.cpu.iq.fu_full::SimdFloatReduceCmp            0      0.00%     98.46% # attempts to use FU when none available
system.cpu.iq.fu_full::SimdAes                      0      0.00%     98.46% # attempts to use FU when none available
system.cpu.iq.fu_full::SimdAesMix                   0      0.00%     98.46% # attempts to use FU when none available
system.cpu.iq.fu_full::SimdSha1Hash                 0      0.00%     98.46% # attempts to use FU when none available
system.cpu.iq.fu_full::SimdSha1Hash2                0      0.00%     98.46% # attempts to use FU when none available
system.cpu.iq.fu_full::SimdSha256Hash               0      0.00%     98.46% # attempts to use FU when none available
system.cpu.iq.fu_full::SimdSha256Hash2              0      0.00%     98.46% # attempts to use FU when none available
system.cpu.iq.fu_full::SimdShaSigma2                0      0.00%     98.46% # attempts to use FU when none available
system.cpu.iq.fu_full::SimdShaSigma3                0      0.00%     98.46% # attempts to use FU when none available
system.cpu.iq.fu_full::SimdPredAlu                  0      0.00%     98.46% # attempts to use FU when none available
system.cpu.iq.fu_full::MemRead                   1396      0.87%     99.33% # attempts to use FU when none available
system.cpu.iq.fu_full::MemWrite                   813      0.51%     99.84% # attempts to use FU when none available
system.cpu.iq.fu_full::FloatMemRead               111      0.07%     99.91% # attempts to use FU when none available
system.cpu.iq.fu_full::FloatMemWrite              149      0.09%    100.00% # attempts to use FU when none available
system.cpu.iq.fu_full::IprAccess                    0      0.00%    100.00% # attempts to use FU when none available
system.cpu.iq.fu_full::InstPrefetch                 0      0.00%    100.00% # attempts to use FU when none available
system.cpu.iq.int_alu_accesses               10825813                       # Number of integer alu accesses
system.cpu.iq.int_inst_queue_reads           27906696                       # Number of integer instruction queue reads
system.cpu.iq.int_inst_queue_wakeup_accesses     10948230                       # Number of integer instruction queue wakeup accesses
system.cpu.iq.int_inst_queue_writes          12174917                       # Number of integer instruction queue writes
system.cpu.iq.iqInstsAdded                   18747020                       # Number of instructions added to the IQ (excludes non-spec)
system.cpu.iq.iqInstsIssued                  18342088                       # Number of instructions issued
system.cpu.iq.iqNonSpecInstsAdded                  21                       # Number of non-speculative instructions added to the IQ
system.cpu.iq.iqSquashedInstsExamined          835242                       # Number of squashed instructions iterated over during squash; mainly for profiling
system.cpu.iq.iqSquashedInstsIssued              2601                       # Number of squashed instructions issued
system.cpu.iq.iqSquashedNonSpecRemoved              3                       # Number of squashed non-spec instructions that were removed
system.cpu.iq.iqSquashedOperandsExamined      1808198                       # Number of squashed operands that are examined and possibly removed from graph
system.cpu.iq.issued_per_cycle::samples       5777164                       # Number of insts issued each cycle
system.cpu.iq.issued_per_cycle::mean         3.174929                       # Number of insts issued each cycle
system.cpu.iq.issued_per_cycle::stdev        2.117335                       # Number of insts issued each cycle
system.cpu.iq.issued_per_cycle::underflows            0      0.00%      0.00% # Number of insts issued each cycle
system.cpu.iq.issued_per_cycle::0              623344     10.79%     10.79% # Number of insts issued each cycle
system.cpu.iq.issued_per_cycle::1              760461     13.16%     23.95% # Number of insts issued each cycle
system.cpu.iq.issued_per_cycle::2             1102512     19.08%     43.04% # Number of insts issued each cycle
system.cpu.iq.issued_per_cycle::3              902231     15.62%     58.65% # Number of insts issued each cycle
system.cpu.iq.issued_per_cycle::4              876498     15.17%     73.83% # Number of insts issued each cycle
system.cpu.iq.issued_per_cycle::5              481387      8.33%     82.16% # Number of insts issued each cycle
system.cpu.iq.issued_per_cycle::6              575713      9.97%     92.12% # Number of insts issued each cycle
system.cpu.iq.issued_per_cycle::7              337439      5.84%     97.96% # Number of insts issued each cycle
system.cpu.iq.issued_per_cycle::8              117579      2.04%    100.00% # Number of insts issued each cycle
system.cpu.iq.issued_per_cycle::overflows            0      0.00%    100.00% # Number of insts issued each cycle
system.cpu.iq.issued_per_cycle::min_value            0                       # Number of insts issued each cycle
system.cpu.iq.issued_per_cycle::max_value            8                       # Number of insts issued each cycle
system.cpu.iq.issued_per_cycle::total         5777164                       # Number of insts issued each cycle
system.cpu.iq.rate                           3.098746                       # Inst issue rate
system.cpu.iq.vec_alu_accesses                      0                       # Number of vector alu accesses
system.cpu.iq.vec_inst_queue_reads                  0                       # Number of vector instruction queue reads
system.cpu.iq.vec_inst_queue_wakeup_accesses            0                       # Number of vector instruction queue wakeup accesses
system.cpu.iq.vec_inst_queue_writes                 0                       # Number of vector instruction queue writes
system.cpu.memDep0.conflictingLoads              4029                       # Number of conflicting loads.
system.cpu.memDep0.conflictingStores             1422                       # Number of conflicting stores.
system.cpu.memDep0.insertedLoads              2321557                       # Number of loads inserted to the mem dependence unit.
system.cpu.memDep0.insertedStores              497111                       # Number of stores inserted to the mem dependence unit.
system.cpu.misc_regfile_reads                 6130408                       # number of misc regfile reads
system.cpu.misc_regfile_writes                     18                       # number of misc regfile writes
system.cpu.numCycles                          5919197                       # number of cpu cycles simulated
system.cpu.numWorkItemsCompleted                    0                       # number of work items this cpu completed
system.cpu.numWorkItemsStarted                      0                       # number of work items this cpu started
system.cpu.timesIdled                            1540                       # Number of times that the entire CPU went into an idle state and unscheduled itself
system.cpu.workload.numSyscalls                    57                       # Number of system calls
system.membus.snoop_filter.hit_multi_requests            0                       # Number of requests hitting in the snoop filter with multiple (>1) holders of the requested data.
system.membus.snoop_filter.hit_multi_snoops            0                       # Number of snoops hitting in the snoop filter with multiple (>1) holders of the requested data.
system.membus.snoop_filter.hit_single_requests         6468                       # Number of requests hitting in the snoop filter with a single holder of the requested data.
system.membus.snoop_filter.hit_single_snoops            0                       # Number of snoops hitting in the snoop filter with a single holder of the requested data.
system.membus.snoop_filter.tot_requests         21643                       # Total number of requests made to the snoop filter.
system.membus.snoop_filter.tot_snoops               0                       # Total number of snoops made to the snoop filter.
system.tol2bus.snoop_filter.hit_multi_requests            7                       # Number of requests hitting in the snoop filter with multiple (>1) holders of the requested data.
system.tol2bus.snoop_filter.hit_multi_snoops            0                       # Number of snoops hitting in the snoop filter with multiple (>1) holders of the requested data.
system.tol2bus.snoop_filter.hit_single_requests        16280                       # Number of requests hitting in the snoop filter with a single holder of the requested data.
system.tol2bus.snoop_filter.hit_single_snoops          518                       # Number of snoops hitting in the snoop filter with a single holder of the requested data.
system.tol2bus.snoop_filter.tot_requests        33583                       # Total number of requests made to the snoop filter.
system.tol2bus.snoop_filter.tot_snoops            518                       # Total number of snoops made to the snoop filter.
system.clk_domain.clock                           250                       # Clock period in ticks
system.cpu.branchPred.lookups                 1224636                       # Number of BP lookups
system.cpu.branchPred.condPredicted            772382                       # Number of conditional branches predicted
system.cpu.branchPred.condIncorrect             17438                       # Number of conditional branches incorrect
system.cpu.branchPred.BTBLookups               404544                       # Number of BTB lookups
system.cpu.branchPred.BTBHits                  393411                       # Number of BTB hits
system.cpu.branchPred.BTBHitPct             97.248013                       # BTB Hit Percentage
system.cpu.branchPred.RASUsed                  145081                       # Number of times the RAS was used to get a target.
system.cpu.branchPred.RASIncorrect                  3                       # Number of incorrect RAS predictions.
system.cpu.branchPred.indirectLookups          149114                       # Number of indirect predictor lookups.
system.cpu.branchPred.indirectHits             141923                       # Number of indirect target hits.
system.cpu.branchPred.indirectMisses             7191                       # Number of indirect misses.
system.cpu.branchPred.indirectMispredicted         1196                       # Number of mispredicted indirect branches.
system.cpu.commit.commitSquashedInsts          826002                       # The number of squashed insts skipped by commit
system.cpu.commit.commitNonSpecStalls              18                       # The number of times commit has been forced to stall to communicate backwards
system.cpu.commit.branchMispredicts             16336                       # The number of times a branch was mispredicted
system.cpu.commit.numCommittedDist::samples      5662433                       # Number of insts commited each cycle
system.cpu.commit.numCommittedDist::mean     3.163248                       # Number of insts commited each cycle
system.cpu.commit.numCommittedDist::stdev     2.892335                       # Number of insts commited each cycle
system.cpu.commit.numCommittedDist::underflows            0      0.00%      0.00% # Number of insts commited each cycle
system.cpu.commit.numCommittedDist::0          862157     15.23%     15.23% # Number of insts commited each cycle
system.cpu.commit.numCommittedDist::1         1626955     28.73%     43.96% # Number of insts commited each cycle
system.cpu.commit.numCommittedDist::2          750794     13.26%     57.22% # Number of insts commited each cycle
system.cpu.commit.numCommittedDist::3          466722      8.24%     65.46% # Number of insts commited each cycle
system.cpu.commit.numCommittedDist::4          156847      2.77%     68.23% # Number of insts commited each cycle
system.cpu.commit.numCommittedDist::5          297074      5.25%     73.48% # Number of insts commited each cycle
system.cpu.commit.numCommittedDist::6          157017      2.77%     76.25% # Number of insts commited each cycle
system.cpu.commit.numCommittedDist::7          430826      7.61%     83.86% # Number of insts commited each cycle
system.cpu.commit.numCommittedDist::8          914041     16.14%    100.00% # Number of insts commited each cycle
system.cpu.commit.numCommittedDist::overflows            0      0.00%    100.00% # Number of insts commited each cycle
system.cpu.commit.numCommittedDist::min_value            0                       # Number of insts commited each cycle
system.cpu.commit.numCommittedDist::max_value            8                       # Number of insts commited each cycle
system.cpu.commit.numCommittedDist::total      5662433                       # Number of insts commited each cycle
system.cpu.commit.instsCommitted             10000000                       # Number of instructions committed
system.cpu.commit.opsCommitted               17911679                       # Number of ops (including micro ops) committed
system.cpu.commit.memRefs                     2712967                       # Number of memory references committed
system.cpu.commit.loads                       2242684                       # Number of loads committed
system.cpu.commit.amos                              0                       # Number of atomic instructions committed
system.cpu.commit.membars                           0                       # Number of memory barriers committed
system.cpu.commit.branches                    1090188                       # Number of branches committed
system.cpu.commit.vector                            0                       # Number of committed Vector instructions.
system.cpu.commit.floating                    7334339                       # Number of committed floating point instructions.
system.cpu.commit.integer                    12675584                       # Number of committed integer instructions.
system.cpu.commit.functionCalls                142859                       # Number of function calls committed.
system.cpu.commit.committedInstType_0::No_OpClass       304874      1.70%      1.70% # Class of committed instruction
system.cpu.commit.committedInstType_0::IntAlu      9580380     53.49%     55.19% # Class of committed instruction
system.cpu.commit.committedInstType_0::IntMult         1379      0.01%     55.20% # Class of committed instruction
system.cpu.commit.committedInstType_0::IntDiv        97485      0.54%     55.74% # Class of committed instruction
system.cpu.commit.committedInstType_0::FloatAdd       422338      2.36%     58.10% # Class of committed instruction
system.cpu.commit.committedInstType_0::FloatCmp            0      0.00%     58.10% # Class of committed instruction
system.cpu.commit.committedInstType_0::FloatCvt           32      0.00%     58.10% # Class of committed instruction
system.cpu.commit.committedInstType_0::FloatMult            0      0.00%     58.10% # Class of committed instruction
system.cpu.commit.committedInstType_0::FloatMultAcc            0      0.00%     58.10% # Class of committed instruction
system.cpu.commit.committedInstType_0::FloatDiv            0      0.00%     58.10% # Class of committed instruction
system.cpu.commit.committedInstType_0::FloatMisc            0      0.00%     58.10% # Class of committed instruction
system.cpu.commit.committedInstType_0::FloatSqrt            0      0.00%     58.10% # Class of committed instruction
system.cpu.commit.committedInstType_0::SimdAdd         2262      0.01%     58.11% # Class of committed instruction
system.cpu.commit.committedInstType_0::SimdAddAcc            0      0.00%     58.11% # Class of committed instruction
system.cpu.commit.committedInstType_0::SimdAlu       846514      4.73%     62.84% # Class of committed instruction
system.cpu.commit.committedInstType_0::SimdCmp           12      0.00%     62.84% # Class of committed instruction
system.cpu.commit.committedInstType_0::SimdCvt         4818      0.03%     62.86% # Class of committed instruction
system.cpu.commit.committedInstType_0::SimdMisc       846633      4.73%     67.59% # Class of committed instruction
system.cpu.commit.committedInstType_0::SimdMult           64      0.00%     67.59% # Class of committed instruction
system.cpu.commit.committedInstType_0::SimdMultAcc            0      0.00%     67.59% # Class of committed instruction
system.cpu.commit.committedInstType_0::SimdShift          884      0.00%     67.60% # Class of committed instruction
system.cpu.commit.committedInstType_0::SimdShiftAcc            0      0.00%     67.60% # Class of committed instruction
system.cpu.commit.committedInstType_0::SimdDiv            0      0.00%     67.60% # Class of committed instruction
system.cpu.commit.committedInstType_0::SimdSqrt            0      0.00%     67.60% # Class of committed instruction
system.cpu.commit.committedInstType_0::SimdFloatAdd      1405003      7.84%     75.44% # Class of committed instruction
system.cpu.commit.committedInstType_0::SimdFloatAlu            0      0.00%     75.44% # Class of committed instruction
system.cpu.commit.committedInstType_0::SimdFloatCmp            0      0.00%     75.44% # Class of committed instruction
system.cpu.commit.committedInstType_0::SimdFloatCvt       702543      3.92%     79.36% # Class of committed instruction
system.cpu.commit.committedInstType_0::SimdFloatDiv            2      0.00%     79.36% # Class of committed instruction
system.cpu.commit.committedInstType_0::SimdFloatMisc            0      0.00%     79.36% # Class of committed instruction
system.cpu.commit.committedInstType_0::SimdFloatMult       983489      5.49%     84.85% # Class of committed instruction
system.cpu.commit.committedInstType_0::SimdFloatMultAcc            0      0.00%     84.85% # Class of committed instruction
system.cpu.commit.committedInstType_0::SimdFloatSqrt            0      0.00%     84.85% # Class of committed instruction
system.cpu.commit.committedInstType_0::SimdReduceAdd            0      0.00%     84.85% # Class of committed instruction
system.cpu.commit.committedInstType_0::SimdReduceAlu            0      0.00%     84.85% # Class of committed instruction
system.cpu.commit.committedInstType_0::SimdReduceCmp            0      0.00%     84.85% # Class of committed instruction
system.cpu.commit.committedInstType_0::SimdFloatReduceAdd            0      0.00%     84.85% # Class of committed instruction
system.cpu.commit.committedInstType_0::SimdFloatReduceCmp            0      0.00%     84.85% # Class of committed instruction
system.cpu.commit.committedInstType_0::SimdAes            0      0.00%     84.85% # Class of committed instruction
system.cpu.commit.committedInstType_0::SimdAesMix            0      0.00%     84.85% # Class of committed instruction
system.cpu.commit.committedInstType_0::SimdSha1Hash            0      0.00%     84.85% # Class of committed instruction
system.cpu.commit.committedInstType_0::SimdSha1Hash2            0      0.00%     84.85% # Class of committed instruction
system.cpu.commit.committedInstType_0::SimdSha256Hash            0      0.00%     84.85% # Class of committed instruction
system.cpu.commit.committedInstType_0::SimdSha256Hash2            0      0.00%     84.85% # Class of committed instruction
system.cpu.commit.committedInstType_0::SimdShaSigma2            0      0.00%     84.85% # Class of committed instruction
system.cpu.commit.committedInstType_0::SimdShaSigma3            0      0.00%     84.85% # Class of committed instruction
system.cpu.commit.committedInstType_0::SimdPredAlu            0      0.00%     84.85% # Class of committed instruction
system.cpu.commit.committedInstType_0::MemRead       692034      3.86%     88.72% # Class of committed instruction
system.cpu.commit.committedInstType_0::MemWrite       463876      2.59%     91.31% # Class of committed instruction
system.cpu.commit.committedInstType_0::FloatMemRead      1550650      8.66%     99.96% # Class of committed instruction
system.cpu.commit.committedInstType_0::FloatMemWrite         6407      0.04%    100.00% # Class of committed instruction
system.cpu.commit.committedInstType_0::IprAccess            0      0.00%    100.00% # Class of committed instruction
system.cpu.commit.committedInstType_0::InstPrefetch            0      0.00%    100.00% # Class of committed instruction
system.cpu.commit.committedInstType_0::total     17911679                       # Class of committed instruction
system.cpu.commit.commitEligibleSamples        914041                       # number cycles where commit BW limit reached
system.cpu.dcache.demand_hits::.cpu.data      2598066                       # number of demand (read+write) hits
system.cpu.dcache.demand_hits::total          2598066                       # number of demand (read+write) hits
system.cpu.dcache.overall_hits::.cpu.data      2598066                       # number of overall hits
system.cpu.dcache.overall_hits::total         2598066                       # number of overall hits
system.cpu.dcache.demand_misses::.cpu.data        26496                       # number of demand (read+write) misses
system.cpu.dcache.demand_misses::total          26496                       # number of demand (read+write) misses
system.cpu.dcache.overall_misses::.cpu.data        26496                       # number of overall misses
system.cpu.dcache.overall_misses::total         26496                       # number of overall misses
system.cpu.dcache.demand_miss_latency::.cpu.data   1556792996                       # number of demand (read+write) miss cycles
system.cpu.dcache.demand_miss_latency::total   1556792996                       # number of demand (read+write) miss cycles
system.cpu.dcache.overall_miss_latency::.cpu.data   1556792996                       # number of overall miss cycles
system.cpu.dcache.overall_miss_latency::total   1556792996                       # number of overall miss cycles
system.cpu.dcache.demand_accesses::.cpu.data      2624562                       # number of demand (read+write) accesses
system.cpu.dcache.demand_accesses::total      2624562                       # number of demand (read+write) accesses
system.cpu.dcache.overall_accesses::.cpu.data      2624562                       # number of overall (read+write) accesses
system.cpu.dcache.overall_accesses::total      2624562                       # number of overall (read+write) accesses
system.cpu.dcache.demand_miss_rate::.cpu.data     0.010095                       # miss rate for demand accesses
system.cpu.dcache.demand_miss_rate::total     0.010095                       # miss rate for demand accesses
system.cpu.dcache.overall_miss_rate::.cpu.data     0.010095                       # miss rate for overall accesses
system.cpu.dcache.overall_miss_rate::total     0.010095                       # miss rate for overall accesses
system.cpu.dcache.demand_avg_miss_latency::.cpu.data 58755.774306                       # average overall miss latency
system.cpu.dcache.demand_avg_miss_latency::total 58755.774306                       # average overall miss latency
system.cpu.dcache.overall_avg_miss_latency::.cpu.data 58755.774306                       # average overall miss latency
system.cpu.dcache.overall_avg_miss_latency::total 58755.774306                       # average overall miss latency
system.cpu.dcache.blocked_cycles::no_mshrs        19611                       # number of cycles access was blocked
system.cpu.dcache.blocked_cycles::no_targets            4                       # number of cycles access was blocked
system.cpu.dcache.blocked::no_mshrs               483                       # number of cycles access was blocked
system.cpu.dcache.blocked::no_targets               1                       # number of cycles access was blocked
system.cpu.dcache.avg_blocked_cycles::no_mshrs    40.602484                       # average number of cycles each access was blocked
system.cpu.dcache.avg_blocked_cycles::no_targets            4                       # average number of cycles each access was blocked
system.cpu.dcache.writebacks::.writebacks        11013                       # number of writebacks
system.cpu.dcache.writebacks::total             11013                       # number of writebacks
system.cpu.dcache.demand_mshr_hits::.cpu.data        11772                       # number of demand (read+write) MSHR hits
system.cpu.dcache.demand_mshr_hits::total        11772                       # number of demand (read+write) MSHR hits
system.cpu.dcache.overall_mshr_hits::.cpu.data        11772                       # number of overall MSHR hits
system.cpu.dcache.overall_mshr_hits::total        11772                       # number of overall MSHR hits
system.cpu.dcache.demand_mshr_misses::.cpu.data        14724                       # number of demand (read+write) MSHR misses
system.cpu.dcache.demand_mshr_misses::total        14724                       # number of demand (read+write) MSHR misses
system.cpu.dcache.overall_mshr_misses::.cpu.data        14724                       # number of overall MSHR misses
system.cpu.dcache.overall_mshr_misses::total        14724                       # number of overall MSHR misses
system.cpu.dcache.demand_mshr_miss_latency::.cpu.data    948868996                       # number of demand (read+write) MSHR miss cycles
system.cpu.dcache.demand_mshr_miss_latency::total    948868996                       # number of demand (read+write) MSHR miss cycles
system.cpu.dcache.overall_mshr_miss_latency::.cpu.data    948868996                       # number of overall MSHR miss cycles
system.cpu.dcache.overall_mshr_miss_latency::total    948868996                       # number of overall MSHR miss cycles
system.cpu.dcache.demand_mshr_miss_rate::.cpu.data     0.005610                       # mshr miss rate for demand accesses
system.cpu.dcache.demand_mshr_miss_rate::total     0.005610                       # mshr miss rate for demand accesses
system.cpu.dcache.overall_mshr_miss_rate::.cpu.data     0.005610                       # mshr miss rate for overall accesses
system.cpu.dcache.overall_mshr_miss_rate::total     0.005610                       # mshr miss rate for overall accesses
system.cpu.dcache.demand_avg_mshr_miss_latency::.cpu.data 64443.697093                       # average overall mshr miss latency
system.cpu.dcache.demand_avg_mshr_miss_latency::total 64443.697093                       # average overall mshr miss latency
system.cpu.dcache.overall_avg_mshr_miss_latency::.cpu.data 64443.697093                       # average overall mshr miss latency
system.cpu.dcache.overall_avg_mshr_miss_latency::total 64443.697093                       # average overall mshr miss latency
system.cpu.dcache.replacements                  14212                       # number of replacements
system.cpu.dcache.ReadReq_hits::.cpu.data      2138469                       # number of ReadReq hits
system.cpu.dcache.ReadReq_hits::total         2138469                       # number of ReadReq hits
system.cpu.dcache.ReadReq_misses::.cpu.data        15788                       # number of ReadReq misses
system.cpu.dcache.ReadReq_misses::total         15788                       # number of ReadReq misses
system.cpu.dcache.ReadReq_miss_latency::.cpu.data    801992500                       # number of ReadReq miss cycles
system.cpu.dcache.ReadReq_miss_latency::total    801992500                       # number of ReadReq miss cycles
system.cpu.dcache.ReadReq_accesses::.cpu.data      2154257                       # number of ReadReq accesses(hits+misses)
system.cpu.dcache.ReadReq_accesses::total      2154257                       # number of ReadReq accesses(hits+misses)
system.cpu.dcache.ReadReq_miss_rate::.cpu.data     0.007329                       # miss rate for ReadReq accesses
system.cpu.dcache.ReadReq_miss_rate::total     0.007329                       # miss rate for ReadReq accesses
system.cpu.dcache.ReadReq_avg_miss_latency::.cpu.data 50797.599443                       # average ReadReq miss latency
system.cpu.dcache.ReadReq_avg_miss_latency::total 50797.599443                       # average ReadReq miss latency
system.cpu.dcache.ReadReq_mshr_hits::.cpu.data        11768                       # number of ReadReq MSHR hits
system.cpu.dcache.ReadReq_mshr_hits::total        11768                       # number of ReadReq MSHR hits
system.cpu.dcache.ReadReq_mshr_misses::.cpu.data         4020                       # number of ReadReq MSHR misses
system.cpu.dcache.ReadReq_mshr_misses::total         4020                       # number of ReadReq MSHR misses
system.cpu.dcache.ReadReq_mshr_miss_latency::.cpu.data    204966000                       # number of ReadReq MSHR miss cycles
system.cpu.dcache.ReadReq_mshr_miss_latency::total    204966000                       # number of ReadReq MSHR miss cycles
system.cpu.dcache.ReadReq_mshr_miss_rate::.cpu.data     0.001866                       # mshr miss rate for ReadReq accesses
system.cpu.dcache.ReadReq_mshr_miss_rate::total     0.001866                       # mshr miss rate for ReadReq accesses
system.cpu.dcache.ReadReq_avg_mshr_miss_latency::.cpu.data 50986.567164                       # average ReadReq mshr miss latency
system.cpu.dcache.ReadReq_avg_mshr_miss_latency::total 50986.567164                       # average ReadReq mshr miss latency
system.cpu.dcache.WriteReq_hits::.cpu.data       459597                       # number of WriteReq hits
system.cpu.dcache.WriteReq_hits::total         459597                       # number of WriteReq hits
system.cpu.dcache.WriteReq_misses::.cpu.data        10708                       # number of WriteReq misses
system.cpu.dcache.WriteReq_misses::total        10708                       # number of WriteReq misses
system.cpu.dcache.WriteReq_miss_latency::.cpu.data    754800496                       # number of WriteReq miss cycles
system.cpu.dcache.WriteReq_miss_latency::total    754800496                       # number of WriteReq miss cycles
system.cpu.dcache.WriteReq_accesses::.cpu.data       470305                       # number of WriteReq accesses(hits+misses)
system.cpu.dcache.WriteReq_accesses::total       470305                       # number of WriteReq accesses(hits+misses)
system.cpu.dcache.WriteReq_miss_rate::.cpu.data     0.022768                       # miss rate for WriteReq accesses
system.cpu.dcache.WriteReq_miss_rate::total     0.022768                       # miss rate for WriteReq accesses
system.cpu.dcache.WriteReq_avg_miss_latency::.cpu.data 70489.400075                       # average WriteReq miss latency
system.cpu.dcache.WriteReq_avg_miss_latency::total 70489.400075                       # average WriteReq miss latency
system.cpu.dcache.WriteReq_mshr_hits::.cpu.data            4                       # number of WriteReq MSHR hits
system.cpu.dcache.WriteReq_mshr_hits::total            4                       # number of WriteReq MSHR hits
system.cpu.dcache.WriteReq_mshr_misses::.cpu.data        10704                       # number of WriteReq MSHR misses
system.cpu.dcache.WriteReq_mshr_misses::total        10704                       # number of WriteReq MSHR misses
system.cpu.dcache.WriteReq_mshr_miss_latency::.cpu.data    743902996                       # number of WriteReq MSHR miss cycles
system.cpu.dcache.WriteReq_mshr_miss_latency::total    743902996                       # number of WriteReq MSHR miss cycles
system.cpu.dcache.WriteReq_mshr_miss_rate::.cpu.data     0.022760                       # mshr miss rate for WriteReq accesses
system.cpu.dcache.WriteReq_mshr_miss_rate::total     0.022760                       # mshr miss rate for WriteReq accesses
system.cpu.dcache.WriteReq_avg_mshr_miss_latency::.cpu.data 69497.664051                       # average WriteReq mshr miss latency
system.cpu.dcache.WriteReq_avg_mshr_miss_latency::total 69497.664051                       # average WriteReq mshr miss latency
system.cpu.dcache.power_state.pwrStateResidencyTicks::UNDEFINED   2959598000                       # Cumulative time (in ticks) in various power states
system.cpu.dcache.tags.tagsinuse           506.612318                       # Cycle average of tags in use
system.cpu.dcache.tags.total_refs             2612790                       # Total number of references to valid blocks.
system.cpu.dcache.tags.sampled_refs             14724                       # Sample count of references to valid blocks.
system.cpu.dcache.tags.avg_refs            177.451100                       # Average number of references to valid blocks.
system.cpu.dcache.tags.warmup_cycle            163000                       # Cycle when the warmup percentage was hit.
system.cpu.dcache.tags.occ_blocks::.cpu.data   506.612318                       # Average occupied blocks per requestor
system.cpu.dcache.tags.occ_percent::.cpu.data     0.989477                       # Average percentage of cache occupancy
system.cpu.dcache.tags.occ_percent::total     0.989477                       # Average percentage of cache occupancy
system.cpu.dcache.tags.occ_task_id_blocks::1024          512                       # Occupied blocks per task id
system.cpu.dcache.tags.age_task_id_blocks_1024::0           37                       # Occupied blocks per task id
system.cpu.dcache.tags.age_task_id_blocks_1024::1          327                       # Occupied blocks per task id
system.cpu.dcache.tags.age_task_id_blocks_1024::2          140                       # Occupied blocks per task id
system.cpu.dcache.tags.age_task_id_blocks_1024::3            8                       # Occupied blocks per task id
system.cpu.dcache.tags.occ_task_id_percent::1024            1                       # Percentage of cache occupancy per task id
system.cpu.dcache.tags.tag_accesses           5263848                       # Number of tag accesses
system.cpu.dcache.tags.data_accesses          5263848                       # Number of data accesses
system.cpu.dcache.tags.power_state.pwrStateResidencyTicks::UNDEFINED   2959598000                       # Cumulative time (in ticks) in various power states
system.cpu.decode.idleCycles                   712707                       # Number of cycles decode is idle
system.cpu.decode.blockedCycles               2642837                       # Number of cycles decode is blocked
system.cpu.decode.runCycles                   1100391                       # Number of cycles decode is running
system.cpu.decode.unblockCycles               1304412                       # Number of cycles decode is unblocking
system.cpu.decode.squashCycles                  16817                       # Number of cycles decode is squashing
system.cpu.decode.branchResolved               376572                       # Number of times decode resolved a  branch
system.cpu.decode.branchMispred                  1609                       # Number of times decode detected a branch misprediction
system.cpu.decode.decodedInsts               18942115                       # Number of instructions handled by decode
system.cpu.decode.squashedInsts                  7580                       # Number of squashed instructions handled by decode
system.cpu.dtb.rdAccesses                     2302974                       # TLB accesses on read requests
system.cpu.dtb.wrAccesses                      485615                       # TLB accesses on write requests
system.cpu.dtb.rdMisses                           591                       # TLB misses on read requests
system.cpu.dtb.wrMisses                           681                       # TLB misses on write requests
system.cpu.dtb.walker.power_state.pwrStateResidencyTicks::UNDEFINED   2959598000                       # Cumulative time (in ticks) in various power states
system.cpu.dtb_walker_cache.blocked_cycles::no_mshrs            0                       # number of cycles access was blocked
system.cpu.dtb_walker_cache.blocked_cycles::no_targets            0                       # number of cycles access was blocked
system.cpu.dtb_walker_cache.blocked::no_mshrs            0                       # number of cycles access was blocked
system.cpu.dtb_walker_cache.blocked::no_targets            0                       # number of cycles access was blocked
system.cpu.dtb_walker_cache.avg_blocked_cycles::no_mshrs          nan                       # average number of cycles each access was blocked
system.cpu.dtb_walker_cache.avg_blocked_cycles::no_targets          nan                       # average number of cycles each access was blocked
system.cpu.dtb_walker_cache.replacements            0                       # number of replacements
system.cpu.dtb_walker_cache.power_state.pwrStateResidencyTicks::UNDEFINED   2959598000                       # Cumulative time (in ticks) in various power states
system.cpu.dtb_walker_cache.tags.tagsinuse            0                       # Cycle average of tags in use
system.cpu.dtb_walker_cache.tags.total_refs            0                       # Total number of references to valid blocks.
system.cpu.dtb_walker_cache.tags.sampled_refs            0                       # Sample count of references to valid blocks.
system.cpu.dtb_walker_cache.tags.avg_refs          nan                       # Average number of references to valid blocks.
system.cpu.dtb_walker_cache.tags.warmup_cycle            0                       # Cycle when the warmup percentage was hit.
system.cpu.dtb_walker_cache.tags.tag_accesses            0                       # Number of tag accesses
system.cpu.dtb_walker_cache.tags.data_accesses            0                       # Number of data accesses
system.cpu.dtb_walker_cache.tags.power_state.pwrStateResidencyTicks::UNDEFINED   2959598000                       # Cumulative time (in ticks) in various power states
system.cpu.fetch.icacheStallCycles            1329536                       # Number of cycles fetch is stalled on an Icache miss
system.cpu.fetch.insts                       10517203                       # Number of instructions fetch has processed
system.cpu.fetch.branches                     1224636                       # Number of branches that fetch encountered
system.cpu.fetch.predictedBranches             680415                       # Number of branches that fetch has predicted taken
system.cpu.fetch.cycles                       4424947                       # Number of cycles fetch has run and was not squashing or blocked
system.cpu.fetch.squashCycles                   36770                       # Number of cycles fetch has spent squashing
system.cpu.fetch.miscStallCycles                  521                       # Number of cycles fetch has spent waiting on interrupts,or bad addresses, or out of MSHRs
system.cpu.fetch.pendingTrapStallCycles          3692                       # Number of stall cycles due to pending traps
system.cpu.fetch.pendingQuiesceStallCycles            9                       # Number of stall cycles due to pending quiesce instructions
system.cpu.fetch.icacheWaitRetryStallCycles           74                       # Number of stall cycles due to full MSHR
system.cpu.fetch.cacheLines                   1256448                       # Number of cache lines fetched
system.cpu.fetch.icacheSquashes                  4566                       # Number of outstanding Icache misses that were squashed
system.cpu.fetch.nisnDist::samples            5777164                       # Number of instructions fetched each cycle (Total)
system.cpu.fetch.nisnDist::mean              3.332817                       # Number of instructions fetched each cycle (Total)
system.cpu.fetch.nisnDist::stdev             3.562979                       # Number of instructions fetched each cycle (Total)
system.cpu.fetch.nisnDist::underflows               0      0.00%      0.00% # Number of instructions fetched each cycle (Total)
system.cpu.fetch.nisnDist::0                  2566282     44.42%     44.42% # Number of instructions fetched each cycle (Total)
system.cpu.fetch.nisnDist::1                   267711      4.63%     49.06% # Number of instructions fetched each cycle (Total)
system.cpu.fetch.nisnDist::2                   376549      6.52%     55.57% # Number of instructions fetched each cycle (Total)
system.cpu.fetch.nisnDist::3                   116997      2.03%     57.60% # Number of instructions fetched each cycle (Total)
system.cpu.fetch.nisnDist::4                   226059      3.91%     61.51% # Number of instructions fetched each cycle (Total)
system.cpu.fetch.nisnDist::5                   122398      2.12%     63.63% # Number of instructions fetched each cycle (Total)
system.cpu.fetch.nisnDist::6                    89725      1.55%     65.18% # Number of instructions fetched each cycle (Total)
system.cpu.fetch.nisnDist::7                   263691      4.56%     69.75% # Number of instructions fetched each cycle (Total)
system.cpu.fetch.nisnDist::8                  1747752     30.25%    100.00% # Number of instructions fetched each cycle (Total)
system.cpu.fetch.nisnDist::overflows                0      0.00%    100.00% # Number of instructions fetched each cycle (Total)
system.cpu.fetch.nisnDist::min_value                0                       # Number of instructions fetched each cycle (Total)
system.cpu.fetch.nisnDist::max_value                8                       # Number of instructions fetched each cycle (Total)
system.cpu.fetch.nisnDist::total              5777164                       # Number of instructions fetched each cycle (Total)
system.cpu.fetch.branchRate                  0.206892                       # Number of branch fetches per cycle
system.cpu.fetch.rate                        1.776796                       # Number of inst fetches per cycle
system.cpu.icache.demand_hits::.cpu.inst      1253156                       # number of demand (read+write) hits
system.cpu.icache.demand_hits::total          1253156                       # number of demand (read+write) hits
system.cpu.icache.overall_hits::.cpu.inst      1253156                       # number of overall hits
system.cpu.icache.overall_hits::total         1253156                       # number of overall hits
system.cpu.icache.demand_misses::.cpu.inst         3292                       # number of demand (read+write) misses
system.cpu.icache.demand_misses::total           3292                       # number of demand (read+write) misses
system.cpu.icache.overall_misses::.cpu.inst         3292                       # number of overall misses
system.cpu.icache.overall_misses::total          3292                       # number of overall misses
system.cpu.icache.demand_miss_latency::.cpu.inst    195531500                       # number of demand (read+write) miss cycles
system.cpu.icache.demand_miss_latency::total    195531500                       # number of demand (read+write) miss cycles
system.cpu.icache.overall_miss_latency::.cpu.inst    195531500                       # number of overall miss cycles
system.cpu.icache.overall_miss_latency::total    195531500                       # number of overall miss cycles
system.cpu.icache.demand_accesses::.cpu.inst      1256448                       # number of demand (read+write) accesses
system.cpu.icache.demand_accesses::total      1256448                       # number of demand (read+write) accesses
system.cpu.icache.overall_accesses::.cpu.inst      1256448                       # number of overall (read+write) accesses
system.cpu.icache.overall_accesses::total      1256448                       # number of overall (read+write) accesses
system.cpu.icache.demand_miss_rate::.cpu.inst     0.002620                       # miss rate for demand accesses
system.cpu.icache.demand_miss_rate::total     0.002620                       # miss rate for demand accesses
system.cpu.icache.overall_miss_rate::.cpu.inst     0.002620                       # miss rate for overall accesses
system.cpu.icache.overall_miss_rate::total     0.002620                       # miss rate for overall accesses
system.cpu.icache.demand_avg_miss_latency::.cpu.inst 59395.959903                       # average overall miss latency
system.cpu.icache.demand_avg_miss_latency::total 59395.959903                       # average overall miss latency
system.cpu.icache.overall_avg_miss_latency::.cpu.inst 59395.959903                       # average overall miss latency
system.cpu.icache.overall_avg_miss_latency::total 59395.959903                       # average overall miss latency
system.cpu.icache.blocked_cycles::no_mshrs          781                       # number of cycles access was blocked
system.cpu.icache.blocked_cycles::no_targets            0                       # number of cycles access was blocked
system.cpu.icache.blocked::no_mshrs                15                       # number of cycles access was blocked
system.cpu.icache.blocked::no_targets               0                       # number of cycles access was blocked
system.cpu.icache.avg_blocked_cycles::no_mshrs    52.066667                       # average number of cycles each access was blocked
system.cpu.icache.avg_blocked_cycles::no_targets          nan                       # average number of cycles each access was blocked
system.cpu.icache.writebacks::.writebacks         2068                       # number of writebacks
system.cpu.icache.writebacks::total              2068                       # number of writebacks
system.cpu.icache.demand_mshr_hits::.cpu.inst          713                       # number of demand (read+write) MSHR hits
system.cpu.icache.demand_mshr_hits::total          713                       # number of demand (read+write) MSHR hits
system.cpu.icache.overall_mshr_hits::.cpu.inst          713                       # number of overall MSHR hits
system.cpu.icache.overall_mshr_hits::total          713                       # number of overall MSHR hits
system.cpu.icache.demand_mshr_misses::.cpu.inst         2579                       # number of demand (read+write) MSHR misses
system.cpu.icache.demand_mshr_misses::total         2579                       # number of demand (read+write) MSHR misses
system.cpu.icache.overall_mshr_misses::.cpu.inst         2579                       # number of overall MSHR misses
system.cpu.icache.overall_mshr_misses::total         2579                       # number of overall MSHR misses
system.cpu.icache.demand_mshr_miss_latency::.cpu.inst    155429500                       # number of demand (read+write) MSHR miss cycles
system.cpu.icache.demand_mshr_miss_latency::total    155429500                       # number of demand (read+write) MSHR miss cycles
system.cpu.icache.overall_mshr_miss_latency::.cpu.inst    155429500                       # number of overall MSHR miss cycles
system.cpu.icache.overall_mshr_miss_latency::total    155429500                       # number of overall MSHR miss cycles
system.cpu.icache.demand_mshr_miss_rate::.cpu.inst     0.002053                       # mshr miss rate for demand accesses
system.cpu.icache.demand_mshr_miss_rate::total     0.002053                       # mshr miss rate for demand accesses
system.cpu.icache.overall_mshr_miss_rate::.cpu.inst     0.002053                       # mshr miss rate for overall accesses
system.cpu.icache.overall_mshr_miss_rate::total     0.002053                       # mshr miss rate for overall accesses
system.cpu.icache.demand_avg_mshr_miss_latency::.cpu.inst 60267.351687                       # average overall mshr miss latency
system.cpu.icache.demand_avg_mshr_miss_latency::total 60267.351687                       # average overall mshr miss latency
system.cpu.icache.overall_avg_mshr_miss_latency::.cpu.inst 60267.351687                       # average overall mshr miss latency
system.cpu.icache.overall_avg_mshr_miss_latency::total 60267.351687                       # average overall mshr miss latency
system.cpu.icache.replacements                   2068                       # number of replacements
system.cpu.icache.ReadReq_hits::.cpu.inst      1253156                       # number of ReadReq hits
system.cpu.icache.ReadReq_hits::total         1253156                       # number of ReadReq hits
system.cpu.icache.ReadReq_misses::.cpu.inst         3292                       # number of ReadReq misses
system.cpu.icache.ReadReq_misses::total          3292                       # number of ReadReq misses
system.cpu.icache.ReadReq_miss_latency::.cpu.inst    195531500                       # number of ReadReq miss cycles
system.cpu.icache.ReadReq_miss_latency::total    195531500                       # number of ReadReq miss cycles
system.cpu.icache.ReadReq_accesses::.cpu.inst      1256448                       # number of ReadReq accesses(hits+misses)
system.cpu.icache.ReadReq_accesses::total      1256448                       # number of ReadReq accesses(hits+misses)
system.cpu.icache.ReadReq_miss_rate::.cpu.inst     0.002620                       # miss rate for ReadReq accesses
system.cpu.icache.ReadReq_miss_rate::total     0.002620                       # miss rate for ReadReq accesses
system.cpu.icache.ReadReq_avg_miss_latency::.cpu.inst 59395.959903                       # average ReadReq miss latency
system.cpu.icache.ReadReq_avg_miss_latency::total 59395.959903                       # average ReadReq miss latency
system.cpu.icache.ReadReq_mshr_hits::.cpu.inst          713                       # number of ReadReq MSHR hits
system.cpu.icache.ReadReq_mshr_hits::total          713                       # number of ReadReq MSHR hits
system.cpu.icache.ReadReq_mshr_misses::.cpu.inst         2579                       # number of ReadReq MSHR misses
system.cpu.icache.ReadReq_mshr_misses::total         2579                       # number of ReadReq MSHR misses
system.cpu.icache.ReadReq_mshr_miss_latency::.cpu.inst    155429500                       # number of ReadReq MSHR miss cycles
system.cpu.icache.ReadReq_mshr_miss_latency::total    155429500                       # number of ReadReq MSHR miss cycles
system.cpu.icache.ReadReq_mshr_miss_rate::.cpu.inst     0.002053                       # mshr miss rate for ReadReq accesses
system.cpu.icache.ReadReq_mshr_miss_rate::total     0.002053                       # mshr miss rate for ReadReq accesses
system.cpu.icache.ReadReq_avg_mshr_miss_latency::.cpu.inst 60267.351687                       # average ReadReq mshr miss latency
system.cpu.icache.ReadReq_avg_mshr_miss_latency::total 60267.351687                       # average ReadReq mshr miss latency
system.cpu.icache.power_state.pwrStateResidencyTicks::UNDEFINED   2959598000                       # Cumulative time (in ticks) in various power states
system.cpu.icache.tags.tagsinuse           505.131101                       # Cycle average of tags in use
system.cpu.icache.tags.total_refs             1255735                       # Total number of references to valid blocks.
system.cpu.icache.tags.sampled_refs              2579                       # Sample count of references to valid blocks.
system.cpu.icache.tags.avg_refs            486.907716                       # Average number of references to valid blocks.
system.cpu.icache.tags.warmup_cycle             79500                       # Cycle when the warmup percentage was hit.
system.cpu.icache.tags.occ_blocks::.cpu.inst   505.131101                       # Average occupied blocks per requestor
system.cpu.icache.tags.occ_percent::.cpu.inst     0.986584                       # Average percentage of cache occupancy
system.cpu.icache.tags.occ_percent::total     0.986584                       # Average percentage of cache occupancy
system.cpu.icache.tags.occ_task_id_blocks::1024          511                       # Occupied blocks per task id
system.cpu.icache.tags.age_task_id_blocks_1024::2            2                       # Occupied blocks per task id
system.cpu.icache.tags.age_task_id_blocks_1024::3          509                       # Occupied blocks per task id
system.cpu.icache.tags.occ_task_id_percent::1024     0.998047                       # Percentage of cache occupancy per task id
system.cpu.icache.tags.tag_accesses           2515475                       # Number of tag accesses
system.cpu.icache.tags.data_accesses          2515475                       # Number of data accesses
system.cpu.icache.tags.power_state.pwrStateResidencyTicks::UNDEFINED   2959598000                       # Cumulative time (in ticks) in various power states
system.cpu.interrupts.clk_domain.clock           8000                       # Clock period in ticks
system.cpu.itb.rdAccesses                           0                       # TLB accesses on read requests
system.cpu.itb.wrAccesses                     1257015                       # TLB accesses on write requests
system.cpu.itb.rdMisses                             0                       # TLB misses on read requests
system.cpu.itb.wrMisses                           785                       # TLB misses on write requests
system.cpu.itb.walker.power_state.pwrStateResidencyTicks::UNDEFINED   2959598000                       # Cumulative time (in ticks) in various power states
system.cpu.itb_walker_cache.blocked_cycles::no_mshrs            0                       # number of cycles access was blocked
system.cpu.itb_walker_cache.blocked_cycles::no_targets            0                       # number of cycles access was blocked
system.cpu.itb_walker_cache.blocked::no_mshrs            0                       # number of cycles access was blocked
system.cpu.itb_walker_cache.blocked::no_targets            0                       # number of cycles access was blocked
system.cpu.itb_walker_cache.avg_blocked_cycles::no_mshrs          nan                       # average number of cycles each access was blocked
system.cpu.itb_walker_cache.avg_blocked_cycles::no_targets          nan                       # average number of cycles each access was blocked
system.cpu.itb_walker_cache.replacements            0                       # number of replacements
system.cpu.itb_walker_cache.power_state.pwrStateResidencyTicks::UNDEFINED   2959598000                       # Cumulative time (in ticks) in various power states
system.cpu.itb_walker_cache.tags.tagsinuse            0                       # Cycle average of tags in use
system.cpu.itb_walker_cache.tags.total_refs            0                       # Total number of references to valid blocks.
system.cpu.itb_walker_cache.tags.sampled_refs            0                       # Sample count of references to valid blocks.
system.cpu.itb_walker_cache.tags.avg_refs          nan                       # Average number of references to valid blocks.
system.cpu.itb_walker_cache.tags.warmup_cycle            0                       # Cycle when the warmup percentage was hit.
system.cpu.itb_walker_cache.tags.tag_accesses            0                       # Number of tag accesses
system.cpu.itb_walker_cache.tags.data_accesses            0                       # Number of data accesses
system.cpu.itb_walker_cache.tags.power_state.pwrStateResidencyTicks::UNDEFINED   2959598000                       # Cumulative time (in ticks) in various power states
system.cpu.lsq0.forwLoads                      148235                       # Number of loads that had data forwarded from stores
system.cpu.lsq0.squashedLoads                   78857                       # Number of loads squashed
system.cpu.lsq0.ignoredResponses                   76                       # Number of memory responses ignored because the instruction is squashed
system.cpu.lsq0.memOrderViolation                 149                       # Number of memory ordering violations
system.cpu.lsq0.squashedStores                  26825                       # Number of stores squashed
system.cpu.lsq0.rescheduledLoads                   33                       # Number of loads that were rescheduled
system.cpu.lsq0.blockedByCache                    363                       # Number of times an access to memory failed due to the cache being blocked
system.cpu.power_state.pwrStateResidencyTicks::ON   2959598000                       # Cumulative time (in ticks) in various power states
system.cpu.rename.squashCycles                  16817                       # Number of cycles rename is squashing
system.cpu.rename.idleCycles                  1099383                       # Number of cycles rename is idle
system.cpu.rename.blockCycles                  304310                       # Number of cycles rename is blocking
system.cpu.rename.serializeStallCycles           3019                       # count of cycles rename stalledfor serializing inst
system.cpu.rename.runCycles                   2010175                       # Number of cycles rename is running
system.cpu.rename.unblockCycles               2343460                       # Number of cycles rename is unblocking
system.cpu.rename.renamedInsts               18860791                       # Number of instructions processed by rename
system.cpu.rename.ROBFullEvents                  3010                       # Number of times rename has blocked due to ROB full
system.cpu.rename.IQFullEvents                1874622                       # Number of times rename has blocked due to IQ full
system.cpu.rename.LQFullEvents                   1797                       # Number of times rename has blocked due to LQ full
system.cpu.rename.SQFullEvents                 165756                       # Number of times rename has blocked due to SQ full
system.cpu.rename.fullRegistersEvents              57                       # Number of times there has been no free registers
system.cpu.rename.renamedOperands            21814511                       # Number of destination operands rename has renamed
system.cpu.rename.lookups                    44199351                       # Number of register rename lookups that rename has made
system.cpu.rename.intLookups                 20152995                       # Number of integer rename lookups
system.cpu.rename.fpLookups                  12333802                       # Number of floating rename lookups
system.cpu.rename.committedMaps              20388214                       # Number of HB maps that are committed
system.cpu.rename.undoneMaps                  1426149                       # Number of HB maps that are undone due to squashing
system.cpu.rename.serializing                      39                       # count of serializing insts renamed
system.cpu.rename.tempSerializing                  23                       # count of temporary serializing insts renamed
system.cpu.rename.skidInsts                   5319191                       # count of insts added to the skid buffer
system.cpu.rob.reads                         23481341                       # The number of ROB reads
system.cpu.rob.writes                        37590608                       # The number of ROB writes
system.cpu.thread_0.numInsts                 10000000                       # Number of Instructions committed
system.cpu.thread_0.numOps                   17911679                       # Number of Ops committed
system.cpu.thread_0.numMemRefs                      0                       # Number of Memory References
system.cpu_clk_domain.clock                       500                       # Clock period in ticks
system.cpu_voltage_domain.voltage                   1                       # Voltage in Volts
system.l2.demand_hits::.cpu.inst                  450                       # number of demand (read+write) hits
system.l2.demand_hits::.cpu.data                 1677                       # number of demand (read+write) hits
system.l2.demand_hits::total                     2127                       # number of demand (read+write) hits
system.l2.overall_hits::.cpu.inst                 450                       # number of overall hits
system.l2.overall_hits::.cpu.data                1677                       # number of overall hits
system.l2.overall_hits::total                    2127                       # number of overall hits
system.l2.demand_misses::.cpu.inst               2128                       # number of demand (read+write) misses
system.l2.demand_misses::.cpu.data              13047                       # number of demand (read+write) misses
system.l2.demand_misses::total                  15175                       # number of demand (read+write) misses
system.l2.overall_misses::.cpu.inst              2128                       # number of overall misses
system.l2.overall_misses::.cpu.data             13047                       # number of overall misses
system.l2.overall_misses::total                 15175                       # number of overall misses
system.l2.demand_miss_latency::.cpu.inst    146733500                       # number of demand (read+write) miss cycles
system.l2.demand_miss_latency::.cpu.data    908816000                       # number of demand (read+write) miss cycles
system.l2.demand_miss_latency::total       1055549500                       # number of demand (read+write) miss cycles
system.l2.overall_miss_latency::.cpu.inst    146733500                       # number of overall miss cycles
system.l2.overall_miss_latency::.cpu.data    908816000                       # number of overall miss cycles
system.l2.overall_miss_latency::total      1055549500                       # number of overall miss cycles
system.l2.demand_accesses::.cpu.inst             2578                       # number of demand (read+write) accesses
system.l2.demand_accesses::.cpu.data            14724                       # number of demand (read+write) accesses
system.l2.demand_accesses::total                17302                       # number of demand (read+write) accesses
system.l2.overall_accesses::.cpu.inst            2578                       # number of overall (read+write) accesses
system.l2.overall_accesses::.cpu.data           14724                       # number of overall (read+write) accesses
system.l2.overall_accesses::total               17302                       # number of overall (read+write) accesses
system.l2.demand_miss_rate::.cpu.inst        0.825446                       # miss rate for demand accesses
system.l2.demand_miss_rate::.cpu.data        0.886104                       # miss rate for demand accesses
system.l2.demand_miss_rate::total            0.877066                       # miss rate for demand accesses
system.l2.overall_miss_rate::.cpu.inst       0.825446                       # miss rate for overall accesses
system.l2.overall_miss_rate::.cpu.data       0.886104                       # miss rate for overall accesses
system.l2.overall_miss_rate::total           0.877066                       # miss rate for overall accesses
system.l2.demand_avg_miss_latency::.cpu.inst 68953.712406                       # average overall miss latency
system.l2.demand_avg_miss_latency::.cpu.data 69657.085920                       # average overall miss latency
system.l2.demand_avg_miss_latency::total 69558.451400                       # average overall miss latency
system.l2.overall_avg_miss_latency::.cpu.inst 68953.712406                       # average overall miss latency
system.l2.overall_avg_miss_latency::.cpu.data 69657.085920                       # average overall miss latency
[...]
system.mem_ctrls.dram.bw_total::.cpu.data    282135614                       # Total bandwidth to/from this memory (bytes/s)
system.mem_ctrls.dram.bw_total::total       379381254                       # Total bandwidth to/from this memory (bytes/s)
system.mem_ctrls.dram.readBursts                15169                       # Number of DRAM read bursts
system.mem_ctrls.dram.writeBursts                2350                       # Number of DRAM write bursts
system.mem_ctrls.dram.perBankRdBursts::0         1139                       # Per bank write bursts
system.mem_ctrls.dram.perBankRdBursts::1          959                       # Per bank write bursts
system.mem_ctrls.dram.perBankRdBursts::2          821                       # Per bank write bursts
system.mem_ctrls.dram.perBankRdBursts::3          865                       # Per bank write bursts
system.mem_ctrls.dram.perBankRdBursts::4          973                       # Per bank write bursts
system.mem_ctrls.dram.perBankRdBursts::5          961                       # Per bank write bursts
system.mem_ctrls.dram.perBankRdBursts::6         1012                       # Per bank write bursts
system.mem_ctrls.dram.perBankRdBursts::7          954                       # Per bank write bursts
system.mem_ctrls.dram.perBankRdBursts::8          956                       # Per bank write bursts
system.mem_ctrls.dram.perBankRdBursts::9          906                       # Per bank write bursts
system.mem_ctrls.dram.perBankRdBursts::10          792                       # Per bank write bursts
system.mem_ctrls.dram.perBankRdBursts::11         1009                       # Per bank write bursts
system.mem_ctrls.dram.perBankRdBursts::12          843                       # Per bank write bursts
system.mem_ctrls.dram.perBankRdBursts::13          877                       # Per bank write bursts
system.mem_ctrls.dram.perBankRdBursts::14         1057                       # Per bank write bursts
system.mem_ctrls.dram.perBankRdBursts::15         1045                       # Per bank write bursts
system.mem_ctrls.dram.perBankWrBursts::0          188                       # Per bank write bursts
system.mem_ctrls.dram.perBankWrBursts::1           62                       # Per bank write bursts
system.mem_ctrls.dram.perBankWrBursts::2           75                       # Per bank write bursts
system.mem_ctrls.dram.perBankWrBursts::3          110                       # Per bank write bursts
system.mem_ctrls.dram.perBankWrBursts::4          108                       # Per bank write bursts
system.mem_ctrls.dram.perBankWrBursts::5          229                       # Per bank write bursts
system.mem_ctrls.dram.perBankWrBursts::6          248                       # Per bank write bursts
system.mem_ctrls.dram.perBankWrBursts::7          181                       # Per bank write bursts
system.mem_ctrls.dram.perBankWrBursts::8          139                       # Per bank write bursts
system.mem_ctrls.dram.perBankWrBursts::9           67                       # Per bank write bursts
system.mem_ctrls.dram.perBankWrBursts::10          111                       # Per bank write bursts
system.mem_ctrls.dram.perBankWrBursts::11          151                       # Per bank write bursts
system.mem_ctrls.dram.perBankWrBursts::12           22                       # Per bank write bursts
system.mem_ctrls.dram.perBankWrBursts::13          138                       # Per bank write bursts
system.mem_ctrls.dram.perBankWrBursts::14          330                       # Per bank write bursts
system.mem_ctrls.dram.perBankWrBursts::15          191                       # Per bank write bursts
system.mem_ctrls.dram.totQLat               115242750                       # Total ticks spent queuing
system.mem_ctrls.dram.totBusLat              75845000                       # Total ticks spent in databus transfers
system.mem_ctrls.dram.totMemAccLat          399661500                       # Total ticks spent from burst creation until serviced by the DRAM
system.mem_ctrls.dram.avgQLat                 7597.25                       # Average queueing delay per DRAM burst
system.mem_ctrls.dram.avgBusLat               5000.00                       # Average bus latency per DRAM burst
system.mem_ctrls.dram.avgMemAccLat           26347.25                       # Average memory access latency per DRAM burst
system.mem_ctrls.dram.readRowHits               13188                       # Number of row buffer hits during reads
system.mem_ctrls.dram.writeRowHits               1953                       # Number of row buffer hits during writes
system.mem_ctrls.dram.readRowHitRate            86.94                       # Row buffer hit rate for reads
system.mem_ctrls.dram.writeRowHitRate           83.11                       # Row buffer hit rate for writes
system.mem_ctrls.dram.bytesPerActivate::samples         2377                       # Bytes accessed per row activation
system.mem_ctrls.dram.bytesPerActivate::mean   471.612958                       # Bytes accessed per row activation
system.mem_ctrls.dram.bytesPerActivate::gmean   306.684777                       # Bytes accessed per row activation
system.mem_ctrls.dram.bytesPerActivate::stdev   365.378875                       # Bytes accessed per row activation
system.mem_ctrls.dram.bytesPerActivate::0-127          463     19.48%     19.48% # Bytes accessed per row activation
system.mem_ctrls.dram.bytesPerActivate::128-255          464     19.52%     39.00% # Bytes accessed per row activation
system.mem_ctrls.dram.bytesPerActivate::256-383          257     10.81%     49.81% # Bytes accessed per row activation
system.mem_ctrls.dram.bytesPerActivate::384-511          170      7.15%     56.96% # Bytes accessed per row activation
system.mem_ctrls.dram.bytesPerActivate::512-639          156      6.56%     63.53% # Bytes accessed per row activation
system.mem_ctrls.dram.bytesPerActivate::640-767          123      5.17%     68.70% # Bytes accessed per row activation
system.mem_ctrls.dram.bytesPerActivate::768-895           83      3.49%     72.19% # Bytes accessed per row activation
system.mem_ctrls.dram.bytesPerActivate::896-1023          359     15.10%     87.29% # Bytes accessed per row activation
system.mem_ctrls.dram.bytesPerActivate::1024-1151          302     12.71%    100.00% # Bytes accessed per row activation
system.mem_ctrls.dram.bytesPerActivate::total         2377                       # Bytes accessed per row activation
system.mem_ctrls.dram.bytesRead                970816                       # Total number of bytes read from DRAM
system.mem_ctrls.dram.bytesWritten             150400                       # Total number of bytes written to DRAM
system.mem_ctrls.dram.avgRdBW              328.022927                       # Average DRAM read bandwidth in MiBytes/s
system.mem_ctrls.dram.avgWrBW               50.817712                       # Average DRAM write bandwidth in MiBytes/s
system.mem_ctrls.dram.peakBW                 12800.00                       # Theoretical peak bandwidth in MiByte/s
system.mem_ctrls.dram.busUtil                    2.96                       # Data bus utilization in percentage
system.mem_ctrls.dram.busUtilRead                2.56                       # Data bus utilization in percentage for reads
system.mem_ctrls.dram.busUtilWrite               0.40                       # Data bus utilization in percentage for writes
system.mem_ctrls.dram.pageHitRate               86.43                       # Row buffer hit rate, read and write combined
system.mem_ctrls.dram.power_state.pwrStateResidencyTicks::UNDEFINED   2959598000                       # Cumulative time (in ticks) in various power states
system.mem_ctrls.dram.rank0.actEnergy         8725080                       # Energy for activate commands per rank (pJ)
system.mem_ctrls.dram.rank0.preEnergy         4633695                       # Energy for precharge commands per rank (pJ)
system.mem_ctrls.dram.rank0.readEnergy       54863760                       # Energy for read commands per rank (pJ)
system.mem_ctrls.dram.rank0.writeEnergy       6269220                       # Energy for write commands per rank (pJ)
system.mem_ctrls.dram.rank0.refreshEnergy 233563200.000000                       # Energy for refresh commands per rank (pJ)
system.mem_ctrls.dram.rank0.actBackEnergy    906836370                       # Energy for active background per rank (pJ)
system.mem_ctrls.dram.rank0.preBackEnergy    372834240                       # Energy for precharge background per rank (pJ)
system.mem_ctrls.dram.rank0.actPowerDownEnergy            0                       # Energy for active power-down per rank (pJ)
system.mem_ctrls.dram.rank0.prePowerDownEnergy            0                       # Energy for precharge power-down per rank (pJ)
system.mem_ctrls.dram.rank0.selfRefreshEnergy            0                       # Energy for self refresh per rank (pJ)
system.mem_ctrls.dram.rank0.totalEnergy    1587725565                       # Total energy per rank (pJ)
system.mem_ctrls.dram.rank0.averagePower   536.466630                       # Core power per rank (mW)
system.mem_ctrls.dram.rank0.totalIdleTime            0                       # Total Idle time Per DRAM Rank
system.mem_ctrls.dram.rank0.pwrStateTime::IDLE    960633750                       # Time in different power states
system.mem_ctrls.dram.rank0.pwrStateTime::REF     98800000                       # Time in different power states
system.mem_ctrls.dram.rank0.pwrStateTime::SREF            0                       # Time in different power states
system.mem_ctrls.dram.rank0.pwrStateTime::PRE_PDN            0                       # Time in different power states
system.mem_ctrls.dram.rank0.pwrStateTime::ACT   1900164250                       # Time in different power states
system.mem_ctrls.dram.rank0.pwrStateTime::ACT_PDN            0                       # Time in different power states
system.mem_ctrls.dram.rank1.actEnergy         8253840                       # Energy for activate commands per rank (pJ)
system.mem_ctrls.dram.rank1.preEnergy         4387020                       # Energy for precharge commands per rank (pJ)
system.mem_ctrls.dram.rank1.readEnergy       53442900                       # Energy for read commands per rank (pJ)
system.mem_ctrls.dram.rank1.writeEnergy       5997780                       # Energy for write commands per rank (pJ)
system.mem_ctrls.dram.rank1.refreshEnergy 233563200.000000                       # Energy for refresh commands per rank (pJ)
system.mem_ctrls.dram.rank1.actBackEnergy    956552910                       # Energy for active background per rank (pJ)
system.mem_ctrls.dram.rank1.preBackEnergy    330967680                       # Energy for precharge background per rank (pJ)
system.mem_ctrls.dram.rank1.actPowerDownEnergy            0                       # Energy for active power-down per rank (pJ)
system.mem_ctrls.dram.rank1.prePowerDownEnergy            0                       # Energy for precharge power-down per rank (pJ)
system.mem_ctrls.dram.rank1.selfRefreshEnergy            0                       # Energy for self refresh per rank (pJ)
system.mem_ctrls.dram.rank1.totalEnergy    1593165330                       # Total energy per rank (pJ)
system.mem_ctrls.dram.rank1.averagePower   538.304638                       # Core power per rank (mW)
system.mem_ctrls.dram.rank1.totalIdleTime            0                       # Total Idle time Per DRAM Rank
system.mem_ctrls.dram.rank1.pwrStateTime::IDLE    851466000                       # Time in different power states
system.mem_ctrls.dram.rank1.pwrStateTime::REF     98800000                       # Time in different power states
system.mem_ctrls.dram.rank1.pwrStateTime::SREF            0                       # Time in different power states
system.mem_ctrls.dram.rank1.pwrStateTime::PRE_PDN            0                       # Time in different power states
system.mem_ctrls.dram.rank1.pwrStateTime::ACT   2009332000                       # Time in different power states
system.mem_ctrls.dram.rank1.pwrStateTime::ACT_PDN            0                       # Time in different power states
system.mem_ctrls.power_state.pwrStateResidencyTicks::UNDEFINED   2959598000                       # Cumulative time (in ticks) in various power states
system.membus.trans_dist::ReadResp               4720                       # Transaction distribution
system.membus.trans_dist::WritebackDirty         2369                       # Transaction distribution
system.membus.trans_dist::CleanEvict             4099                       # Transaction distribution
system.membus.trans_dist::ReadExReq             10455                       # Transaction distribution
system.membus.trans_dist::ReadExResp            10455                       # Transaction distribution
system.membus.trans_dist::ReadSharedReq          4720                       # Transaction distribution
system.membus.pkt_count_system.l2.mem_side_port::system.mem_ctrls.port        36818                       # Packet count per connected requestor and responder (bytes)
system.membus.pkt_count_system.l2.mem_side_port::total        36818                       # Packet count per connected requestor and responder (bytes)
system.membus.pkt_count::total                  36818                       # Packet count per connected requestor and responder (bytes)
system.membus.pkt_size_system.l2.mem_side_port::system.mem_ctrls.port      1122816                       # Cumulative packet size per connected requestor and responder (bytes)
system.membus.pkt_size_system.l2.mem_side_port::total      1122816                       # Cumulative packet size per connected requestor and responder (bytes)
system.membus.pkt_size::total                 1122816                       # Cumulative packet size per connected requestor and responder (bytes)
system.membus.snoops                                0                       # Total snoops (count)
system.membus.snoopTraffic                          0                       # Total snoop traffic (bytes)
system.membus.snoop_fanout::samples             15175                       # Request fanout histogram
system.membus.snoop_fanout::mean                    0                       # Request fanout histogram
system.membus.snoop_fanout::stdev                   0                       # Request fanout histogram
system.membus.snoop_fanout::underflows              0      0.00%      0.00% # Request fanout histogram
system.membus.snoop_fanout::0                   15175    100.00%    100.00% # Request fanout histogram
system.membus.snoop_fanout::1                       0      0.00%    100.00% # Request fanout histogram
system.membus.snoop_fanout::overflows               0      0.00%    100.00% # Request fanout histogram
system.membus.snoop_fanout::min_value               0                       # Request fanout histogram
system.membus.snoop_fanout::max_value               0                       # Request fanout histogram
system.membus.snoop_fanout::total               15175                       # Request fanout histogram
system.membus.power_state.pwrStateResidencyTicks::UNDEFINED   2959598000                       # Cumulative time (in ticks) in various power states
system.membus.reqLayer2.occupancy             7779750                       # Layer occupancy (ticks)
system.membus.reqLayer2.utilization               0.3                       # Layer utilization (%)
system.membus.respLayer1.occupancy           18968750                       # Layer occupancy (ticks)
system.membus.respLayer1.utilization              0.6                       # Layer utilization (%)
system.tol2bus.trans_dist::ReadResp              6599                       # Transaction distribution
system.tol2bus.trans_dist::WritebackDirty        13382                       # Transaction distribution
system.tol2bus.trans_dist::WritebackClean         2068                       # Transaction distribution
system.tol2bus.trans_dist::CleanEvict            7816                       # Transaction distribution
system.tol2bus.trans_dist::ReadExReq            10704                       # Transaction distribution
system.tol2bus.trans_dist::ReadExResp           10704                       # Transaction distribution
system.tol2bus.trans_dist::ReadCleanReq          2579                       # Transaction distribution
system.tol2bus.trans_dist::ReadSharedReq         4020                       # Transaction distribution
system.tol2bus.pkt_count_system.cpu.icache.mem_side_port::system.l2.cpu_side_port         7225                       # Packet count per connected requestor and responder (bytes)
system.tol2bus.pkt_count_system.cpu.dcache.mem_side_port::system.l2.cpu_side_port        43660                       # Packet count per connected requestor and responder (bytes)
system.tol2bus.pkt_count::total                 50885                       # Packet count per connected requestor and responder (bytes)
system.tol2bus.pkt_size_system.cpu.icache.mem_side_port::system.l2.cpu_side_port       297344                       # Cumulative packet size per connected requestor and responder (bytes)
system.tol2bus.pkt_size_system.cpu.dcache.mem_side_port::system.l2.cpu_side_port      1647168                       # Cumulative packet size per connected requestor and responder (bytes)
system.tol2bus.pkt_size::total                1944512                       # Cumulative packet size per connected requestor and responder (bytes)
system.tol2bus.snoops                            6987                       # Total snoops (count)
system.tol2bus.snoopTraffic                    151680                       # Total snoop traffic (bytes)
system.tol2bus.snoop_fanout::samples            24289                       # Request fanout histogram
system.tol2bus.snoop_fanout::mean            0.021615                       # Request fanout histogram
system.tol2bus.snoop_fanout::stdev           0.145425                       # Request fanout histogram
system.tol2bus.snoop_fanout::underflows             0      0.00%      0.00% # Request fanout histogram
system.tol2bus.snoop_fanout::0                  23764     97.84%     97.84% # Request fanout histogram
system.tol2bus.snoop_fanout::1                    525      2.16%    100.00% # Request fanout histogram
system.tol2bus.snoop_fanout::2                      0      0.00%    100.00% # Request fanout histogram
system.tol2bus.snoop_fanout::3                      0      0.00%    100.00% # Request fanout histogram
system.tol2bus.snoop_fanout::4                      0      0.00%    100.00% # Request fanout histogram
system.tol2bus.snoop_fanout::overflows              0      0.00%    100.00% # Request fanout histogram
system.tol2bus.snoop_fanout::min_value              0                       # Request fanout histogram
system.tol2bus.snoop_fanout::max_value              1                       # Request fanout histogram
system.tol2bus.snoop_fanout::total              24289                       # Request fanout histogram
system.tol2bus.power_state.pwrStateResidencyTicks::UNDEFINED   2959598000                       # Cumulative time (in ticks) in various power states
system.tol2bus.reqLayer0.occupancy           29872500                       # Layer occupancy (ticks)
system.tol2bus.reqLayer0.utilization              1.0                       # Layer utilization (%)
system.tol2bus.respLayer0.occupancy           3868500                       # Layer occupancy (ticks)
system.tol2bus.respLayer0.utilization             0.1                       # Layer utilization (%)
system.tol2bus.respLayer1.occupancy          22086499                       # Layer occupancy (ticks)
system.tol2bus.respLayer1.utilization             0.7                       # Layer utilization (%)
system.voltage_domain.voltage                       1                       # Voltage in Volts

---------- End Simulation Statistics   ----------
