
---------- Begin Simulation Statistics ----------
final_tick                                51532577500                       # Number of ticks from beginning of simulation (restored from checkpoints and never reset)
host_inst_rate                                  78698                       # Simulator instruction rate (inst/s)
host_mem_usage                                 717220                       # Number of bytes of host memory used
host_op_rate                                   130654                       # Simulator op (including micro ops) rate (op/s)
host_seconds                                  1270.68                       # Real time elapsed on the host
host_tick_rate                               40555137                       # Simulator tick rate (ticks/s)
sim_freq                                 1000000000000                       # Frequency of simulated ticks
sim_insts                                   100000001                       # Number of instructions simulated
sim_ops                                     166019455                       # Number of ops (including micro ops) simulated
sim_seconds                                  0.051533                       # Number of seconds simulated
sim_ticks                                 51532577500                       # Number of ticks simulated
system.cpu.cc_regfile_reads                  33824104                       # number of cc regfile reads
system.cpu.cc_regfile_writes                 73564089                       # number of cc regfile writes
system.cpu.committedInsts                   100000001                       # Number of Instructions Simulated
system.cpu.committedOps                     166019455                       # Number of Ops (including micro ops) Simulated
system.cpu.cpi                               1.030652                       # CPI: Cycles Per Instruction
system.cpu.cpi_total                         1.030652                       # CPI: Total CPI of All Threads
system.cpu.fp_regfile_reads                  47835025                       # number of floating regfile reads
system.cpu.fp_regfile_writes                 29603635                       # number of floating regfile writes
system.cpu.idleCycles                          199204                       # Total number of cycles that the CPU has spent unscheduled due to idling
system.cpu.iew.branchMispredicts                21377                       # Number of branch mispredicts detected at execute
system.cpu.iew.exec_branches                  5913908                       # Number of branches executed
system.cpu.iew.exec_nop                             0                       # number of nop insts executed
system.cpu.iew.exec_rate                     1.890845                       # Inst execution rate
system.cpu.iew.exec_refs                     54902386                       # number of memory reference insts executed
system.cpu.iew.exec_stores                   16874114                       # Number of stores executed
system.cpu.iew.exec_swp                             0                       # number of swp insts executed
system.cpu.iew.iewBlockCycles                18794834                       # Number of cycles IEW is blocking
system.cpu.iew.iewDispLoadInsts              38064346                       # Number of dispatched load instructions
system.cpu.iew.iewDispNonSpecInsts                254                       # Number of dispatched non-speculative instructions
system.cpu.iew.iewDispSquashedInsts              1588                       # Number of squashed instructions skipped by dispatch
system.cpu.iew.iewDispStoreInsts             17517567                       # Number of dispatched store instructions
system.cpu.iew.iewDispatchedInsts           196079803                       # Number of instructions dispatched to IQ
system.cpu.iew.iewExecLoadInsts              38028272                       # Number of load instructions executed
system.cpu.iew.iewExecSquashedInsts            129805                       # Number of squashed instructions skipped in execute
system.cpu.iew.iewExecutedInsts             194880202                       # Number of executed instructions
system.cpu.iew.iewIQFullEvents                  52589                       # Number of times the IQ has become full, causing a stall
system.cpu.iew.iewIdleCycles                        0                       # Number of cycles IEW is idle
system.cpu.iew.iewLSQFullEvents               3147278                       # Number of times the LSQ has become full, causing a stall
system.cpu.iew.iewSquashCycles                 297936                       # Number of cycles IEW is squashing
system.cpu.iew.iewUnblockCycles               3174484                       # Number of cycles IEW is unblocking
system.cpu.iew.memOrderViolationEvents            596                       # Number of memory order violations
system.cpu.iew.predictedNotTakenIncorrect        13115                       # Number of branches that were predicted not taken incorrectly
system.cpu.iew.predictedTakenIncorrect           8262                       # Number of branches that were predicted taken incorrectly
system.cpu.iew.wb_consumers                 257431116                       # num instructions consuming a value
system.cpu.iew.wb_count                     191416165                       # cumulative count of insts written-back
system.cpu.iew.wb_fanout                     0.570779                       # average fanout of values written-back
system.cpu.iew.wb_producers                 146936380                       # num instructions producing a value
system.cpu.iew.wb_rate                       1.857235                       # insts written-back per cycle
system.cpu.iew.wb_sent                      194673075                       # cumulative count of insts sent to commit
system.cpu.int_regfile_reads                321191266                       # number of integer regfile reads
system.cpu.int_regfile_writes               144633291                       # number of integer regfile writes
system.cpu.ipc                               0.970260                       # IPC: Instructions Per Cycle
system.cpu.ipc_total                         0.970260                       # IPC: Total IPC of All Threads
system.cpu.iq.FU_type_0::No_OpClass           4176509      2.14%      2.14% # Type of FU issued
system.cpu.iq.FU_type_0::IntAlu             111753038     57.31%     59.45% # Type of FU issued
system.cpu.iq.FU_type_0::IntMult              6313409      3.24%     62.69% # Type of FU issued
system.cpu.iq.FU_type_0::IntDiv                101601      0.05%     62.74% # Type of FU issued
system.cpu.iq.FU_type_0::FloatAdd             1448595      0.74%     63.48% # Type of FU issued
system.cpu.iq.FU_type_0::FloatCmp                   0      0.00%     63.48% # Type of FU issued
system.cpu.iq.FU_type_0::FloatCvt                  32      0.00%     63.48% # Type of FU issued
system.cpu.iq.FU_type_0::FloatMult                  0      0.00%     63.48% # Type of FU issued
system.cpu.iq.FU_type_0::FloatMultAcc               0      0.00%     63.48% # Type of FU issued
system.cpu.iq.FU_type_0::FloatDiv                   0      0.00%     63.48% # Type of FU issued
system.cpu.iq.FU_type_0::FloatMisc                  0      0.00%     63.48% # Type of FU issued
system.cpu.iq.FU_type_0::FloatSqrt                  0      0.00%     63.48% # Type of FU issued
system.cpu.iq.FU_type_0::SimdAdd                 3062      0.00%     63.48% # Type of FU issued
system.cpu.iq.FU_type_0::SimdAddAcc                 0      0.00%     63.48% # Type of FU issued
system.cpu.iq.FU_type_0::SimdAlu              2862836      1.47%     64.95% # Type of FU issued
system.cpu.iq.FU_type_0::SimdCmp                   72      0.00%     64.95% # Type of FU issued
system.cpu.iq.FU_type_0::SimdCvt                 7457      0.00%     64.95% # Type of FU issued
system.cpu.iq.FU_type_0::SimdMisc             2869728      1.47%     66.43% # Type of FU issued
system.cpu.iq.FU_type_0::SimdMult                 248      0.00%     66.43% # Type of FU issued
system.cpu.iq.FU_type_0::SimdMultAcc                0      0.00%     66.43% # Type of FU issued
system.cpu.iq.FU_type_0::SimdShift               2063      0.00%     66.43% # Type of FU issued
system.cpu.iq.FU_type_0::SimdShiftAcc               0      0.00%     66.43% # Type of FU issued
system.cpu.iq.FU_type_0::SimdDiv                    0      0.00%     66.43% # Type of FU issued
system.cpu.iq.FU_type_0::SimdSqrt                   0      0.00%     66.43% # Type of FU issued
system.cpu.iq.FU_type_0::SimdFloatAdd         4781133      2.45%     68.88% # Type of FU issued
system.cpu.iq.FU_type_0::SimdFloatAlu               0      0.00%     68.88% # Type of FU issued
system.cpu.iq.FU_type_0::SimdFloatCmp               0      0.00%     68.88% # Type of FU issued
system.cpu.iq.FU_type_0::SimdFloatCvt         2386444      1.22%     70.10% # Type of FU issued
system.cpu.iq.FU_type_0::SimdFloatDiv              19      0.00%     70.10% # Type of FU issued
system.cpu.iq.FU_type_0::SimdFloatMisc              0      0.00%     70.10% # Type of FU issued
system.cpu.iq.FU_type_0::SimdFloatMult        3347076      1.72%     71.82% # Type of FU issued
system.cpu.iq.FU_type_0::SimdFloatMultAcc            0      0.00%     71.82% # Type of FU issued
system.cpu.iq.FU_type_0::SimdFloatSqrt              0      0.00%     71.82% # Type of FU issued
system.cpu.iq.FU_type_0::SimdReduceAdd              0      0.00%     71.82% # Type of FU issued
system.cpu.iq.FU_type_0::SimdReduceAlu              0      0.00%     71.82% # Type of FU issued
system.cpu.iq.FU_type_0::SimdReduceCmp              0      0.00%     71.82% # Type of FU issued
system.cpu.iq.FU_type_0::SimdFloatReduceAdd            0      0.00%     71.82% # Type of FU issued
system.cpu.iq.FU_type_0::SimdFloatReduceCmp            0      0.00%     71.82% # Type of FU issued
system.cpu.iq.FU_type_0::SimdAes                    0      0.00%     71.82% # Type of FU issued
system.cpu.iq.FU_type_0::SimdAesMix                 0      0.00%     71.82% # Type of FU issued
system.cpu.iq.FU_type_0::SimdSha1Hash               0      0.00%     71.82% # Type of FU issued
system.cpu.iq.FU_type_0::SimdSha1Hash2              0      0.00%     71.82% # Type of FU issued
system.cpu.iq.FU_type_0::SimdSha256Hash             0      0.00%     71.82% # Type of FU issued
system.cpu.iq.FU_type_0::SimdSha256Hash2            0      0.00%     71.82% # Type of FU issued
system.cpu.iq.FU_type_0::SimdShaSigma2              0      0.00%     71.82% # Type of FU issued
system.cpu.iq.FU_type_0::SimdShaSigma3              0      0.00%     71.82% # Type of FU issued
system.cpu.iq.FU_type_0::SimdPredAlu                0      0.00%     71.82% # Type of FU issued
system.cpu.iq.FU_type_0::MemRead             26443600     13.56%     85.38% # Type of FU issued
system.cpu.iq.FU_type_0::MemWrite            10641898      5.46%     90.84% # Type of FU issued
system.cpu.iq.FU_type_0::FloatMemRead        11635021      5.97%     96.80% # Type of FU issued
system.cpu.iq.FU_type_0::FloatMemWrite        6236169      3.20%    100.00% # Type of FU issued
system.cpu.iq.FU_type_0::IprAccess                  0      0.00%    100.00% # Type of FU issued
system.cpu.iq.FU_type_0::InstPrefetch               0      0.00%    100.00% # Type of FU issued
system.cpu.iq.FU_type_0::total              195010010                       # Type of FU issued
system.cpu.iq.fp_alu_accesses                39363117                       # Number of floating point alu accesses
system.cpu.iq.fp_inst_queue_reads            76864741                       # Number of floating instruction queue reads
system.cpu.iq.fp_inst_queue_wakeup_accesses     37131401                       # Number of floating instruction queue wakeup accesses
system.cpu.iq.fp_inst_queue_writes           49831116                       # Number of floating instruction queue writes
system.cpu.iq.fu_busy_cnt                     3662828                       # FU busy when requested
system.cpu.iq.fu_busy_rate                   0.018783                       # FU busy rate (busy events/executed inst)
system.cpu.iq.fu_full::No_OpClass                   0      0.00%      0.00% # attempts to use FU when none available
system.cpu.iq.fu_full::IntAlu                  586392     16.01%     16.01% # attempts to use FU when none available
system.cpu.iq.fu_full::IntMult                      0      0.00%     16.01% # attempts to use FU when none available
system.cpu.iq.fu_full::IntDiv                       0      0.00%     16.01% # attempts to use FU when none available
system.cpu.iq.fu_full::FloatAdd                     0      0.00%     16.01% # attempts to use FU when none available
system.cpu.iq.fu_full::FloatCmp                     0      0.00%     16.01% # attempts to use FU when none available
system.cpu.iq.fu_full::FloatCvt                     0      0.00%     16.01% # attempts to use FU when none available
system.cpu.iq.fu_full::FloatMult                    0      0.00%     16.01% # attempts to use FU when none available
system.cpu.iq.fu_full::FloatMultAcc                 0      0.00%     16.01% # attempts to use FU when none available
system.cpu.iq.fu_full::FloatDiv                     0      0.00%     16.01% # attempts to use FU when none available
system.cpu.iq.fu_full::FloatMisc                    0      0.00%     16.01% # attempts to use FU when none available
system.cpu.iq.fu_full::FloatSqrt                    0      0.00%     16.01% # attempts to use FU when none available
system.cpu.iq.fu_full::SimdAdd                      0      0.00%     16.01% # attempts to use FU when none available
system.cpu.iq.fu_full::SimdAddAcc                   0      0.00%     16.01% # attempts to use FU when none available
system.cpu.iq.fu_full::SimdAlu                     79      0.00%     16.01% # attempts to use FU when none available
system.cpu.iq.fu_full::SimdCmp                      0      0.00%     16.01% # attempts to use FU when none available
system.cpu.iq.fu_full::SimdCvt                     17      0.00%     16.01% # attempts to use FU when none available
system.cpu.iq.fu_full::SimdMisc                    25      0.00%     16.01% # attempts to use FU when none available
system.cpu.iq.fu_full::SimdMult                     0      0.00%     16.01% # attempts to use FU when none available
system.cpu.iq.fu_full::SimdMultAcc                  0      0.00%     16.01% # attempts to use FU when none available
system.cpu.iq.fu_full::SimdShift                   57      0.00%     16.01% # attempts to use FU when none available
system.cpu.iq.fu_full::SimdShiftAcc                 0      0.00%     16.01% # attempts to use FU when none available
system.cpu.iq.fu_full::SimdDiv                      0      0.00%     16.01% # attempts to use FU when none available
system.cpu.iq.fu_full::SimdSqrt                     0      0.00%     16.01% # attempts to use FU when none available
system.cpu.iq.fu_full::SimdFloatAdd                22      0.00%     16.01% # attempts to use FU when none available
system.cpu.iq.fu_full::SimdFloatAlu                 0      0.00%     16.01% # attempts to use FU when none available
system.cpu.iq.fu_full::SimdFloatCmp                 0      0.00%     16.01% # attempts to use FU when none available
system.cpu.iq.fu_full::SimdFloatCvt                 0      0.00%     16.01% # attempts to use FU when none available
system.cpu.iq.fu_full::SimdFloatDiv                 0      0.00%     16.01% # attempts to use FU when none available
system.cpu.iq.fu_full::SimdFloatMisc                0      0.00%     16.01% # attempts to use FU when none available
system.cpu.iq.fu_full::SimdFloatMult                8      0.00%     16.01% # attempts to use FU when none available
system.cpu.iq.fu_full::SimdFloatMultAcc             0      0.00%     16.01% # attempts to use FU when none available
system.cpu.iq.fu_full::SimdFloatSqrt                0      0.00%     16.01% # attempts to use FU when none available
system.cpu.iq.fu_full::SimdReduceAdd                0      0.00%     16.01% # attempts to use FU when none available
system.cpu.iq.fu_full::SimdReduceAlu                0      0.00%     16.01% # attempts to use FU when none available
system.cpu.iq.fu_full::SimdReduceCmp                0      0.00%     16.01% # attempts to use FU when none available
system.cpu.iq.fu_full::SimdFloatReduceAdd            0      0.00%     16.01% # attempts to use FU when none available
system.cpu.iq.fu_full::SimdFloatReduceCmp            0      0.00%     16.01% # attempts to use FU when none available
system.cpu.iq.fu_full::SimdAes                      0      0.00%     16.01% # attempts to use FU when none available
system.cpu.iq.fu_full::SimdAesMix                   0      0.00%     16.01% # attempts to use FU when none available
system.cpu.iq.fu_full::SimdSha1Hash                 0      0.00%     16.01% # attempts to use FU when none available
system.cpu.iq.fu_full::SimdSha1Hash2                0      0.00%     16.01% # attempts to use FU when none available
system.cpu.iq.fu_full::SimdSha256Hash               0      0.00%     16.01% # attempts to use FU when none available
system.cpu.iq.fu_full::SimdSha256Hash2              0      0.00%     16.01% # attempts to use FU when none available
system.cpu.iq.fu_full::SimdShaSigma2                0      0.00%     16.01% # attempts to use FU when none available
system.cpu.iq.fu_full::SimdShaSigma3                0      0.00%     16.01% # attempts to use FU when none available
system.cpu.iq.fu_full::SimdPredAlu                  0      0.00%     16.01% # attempts to use FU when none available
system.cpu.iq.fu_full::MemRead                 409855     11.19%     27.20% # attempts to use FU when none available
system.cpu.iq.fu_full::MemWrite                788021     21.51%     48.72% # attempts to use FU when none available
system.cpu.iq.fu_full::FloatMemRead           1630520     44.52%     93.23% # attempts to use FU when none available
system.cpu.iq.fu_full::FloatMemWrite           247832      6.77%    100.00% # attempts to use FU when none available
system.cpu.iq.fu_full::IprAccess                    0      0.00%    100.00% # attempts to use FU when none available
system.cpu.iq.fu_full::InstPrefetch                 0      0.00%    100.00% # attempts to use FU when none available
system.cpu.iq.int_alu_accesses              155133212                       # Number of integer alu accesses
system.cpu.iq.int_inst_queue_reads          419703917                       # Number of integer instruction queue reads
system.cpu.iq.int_inst_queue_wakeup_accesses    154284764                       # Number of integer instruction queue wakeup accesses
system.cpu.iq.int_inst_queue_writes         176309535                       # Number of integer instruction queue writes
system.cpu.iq.iqInstsAdded                  196017048                       # Number of instructions added to the IQ (excludes non-spec)
system.cpu.iq.iqInstsIssued                 195010010                       # Number of instructions issued
system.cpu.iq.iqNonSpecInstsAdded               62755                       # Number of non-speculative instructions added to the IQ
system.cpu.iq.iqSquashedInstsExamined        30060270                       # Number of squashed instructions iterated over during squash; mainly for profiling
system.cpu.iq.iqSquashedInstsIssued             19861                       # Number of squashed instructions issued
system.cpu.iq.iqSquashedNonSpecRemoved          57366                       # Number of squashed non-spec instructions that were removed
system.cpu.iq.iqSquashedOperandsExamined      5512025                       # Number of squashed operands that are examined and possibly removed from graph
system.cpu.iq.issued_per_cycle::samples     102865952                       # Number of insts issued each cycle
system.cpu.iq.issued_per_cycle::mean         1.895768                       # Number of insts issued each cycle
system.cpu.iq.issued_per_cycle::stdev        2.152895                       # Number of insts issued each cycle
system.cpu.iq.issued_per_cycle::underflows            0      0.00%      0.00% # Number of insts issued each cycle
system.cpu.iq.issued_per_cycle::0            44353691     43.12%     43.12% # Number of insts issued each cycle
system.cpu.iq.issued_per_cycle::1             9896608      9.62%     52.74% # Number of insts issued each cycle
system.cpu.iq.issued_per_cycle::2            13096540     12.73%     65.47% # Number of insts issued each cycle
system.cpu.iq.issued_per_cycle::3            11216082     10.90%     76.37% # Number of insts issued each cycle
system.cpu.iq.issued_per_cycle::4             9938539      9.66%     86.04% # Number of insts issued each cycle
system.cpu.iq.issued_per_cycle::5             6361889      6.18%     92.22% # Number of insts issued each cycle
system.cpu.iq.issued_per_cycle::6             3850059      3.74%     95.96% # Number of insts issued each cycle
system.cpu.iq.issued_per_cycle::7             2612231      2.54%     98.50% # Number of insts issued each cycle
system.cpu.iq.issued_per_cycle::8             1540313      1.50%    100.00% # Number of insts issued each cycle
system.cpu.iq.issued_per_cycle::overflows            0      0.00%    100.00% # Number of insts issued each cycle
system.cpu.iq.issued_per_cycle::min_value            0                       # Number of insts issued each cycle
system.cpu.iq.issued_per_cycle::max_value            8                       # Number of insts issued each cycle
system.cpu.iq.issued_per_cycle::total       102865952                       # Number of insts issued each cycle
system.cpu.iq.rate                           1.892104                       # Inst issue rate
system.cpu.iq.vec_alu_accesses                      0                       # Number of vector alu accesses
system.cpu.iq.vec_inst_queue_reads                  0                       # Number of vector instruction queue reads
system.cpu.iq.vec_inst_queue_wakeup_accesses            0                       # Number of vector instruction queue wakeup accesses
system.cpu.iq.vec_inst_queue_writes                 0                       # Number of vector instruction queue writes
system.cpu.memDep0.conflictingLoads           2262132                       # Number of conflicting loads.
system.cpu.memDep0.conflictingStores          1702636                       # Number of conflicting stores.
system.cpu.memDep0.insertedLoads             38064346                       # Number of loads inserted to the mem dependence unit.
system.cpu.memDep0.insertedStores            17517567                       # Number of stores inserted to the mem dependence unit.
system.cpu.misc_regfile_reads                70497101                       # number of misc regfile reads
system.cpu.misc_regfile_writes                     18                       # number of misc regfile writes
system.cpu.numCycles                        103065156                       # number of cpu cycles simulated
system.cpu.numWorkItemsCompleted                    0                       # number of work items this cpu completed
system.cpu.numWorkItemsStarted                      0                       # number of work items this cpu started
system.cpu.timesIdled                            2189                       # Number of times that the entire CPU went into an idle state and unscheduled itself
system.cpu.workload.numSyscalls                   121                       # Number of system calls
system.membus.snoop_filter.hit_multi_requests            0                       # Number of requests hitting in the snoop filter with multiple (>1) holders of the requested data.
system.membus.snoop_filter.hit_multi_snoops            0                       # Number of snoops hitting in the snoop filter with multiple (>1) holders of the requested data.
system.membus.snoop_filter.hit_single_requests       378955                       # Number of requests hitting in the snoop filter with a single holder of the requested data.
system.membus.snoop_filter.hit_single_snoops            0                       # Number of snoops hitting in the snoop filter with a single holder of the requested data.
system.membus.snoop_filter.tot_requests        766619                       # Total number of requests made to the snoop filter.
system.membus.snoop_filter.tot_snoops               0                       # Total number of snoops made to the snoop filter.
system.tol2bus.snoop_filter.hit_multi_requests           12                       # Number of requests hitting in the snoop filter with multiple (>1) holders of the requested data.
system.tol2bus.snoop_filter.hit_multi_snoops            0                       # Number of snoops hitting in the snoop filter with multiple (>1) holders of the requested data.
system.tol2bus.snoop_filter.hit_single_requests       425158                       # Number of requests hitting in the snoop filter with a single holder of the requested data.
system.tol2bus.snoop_filter.hit_single_snoops         1240                       # Number of snoops hitting in the snoop filter with a single holder of the requested data.
system.tol2bus.snoop_filter.tot_requests       851343                       # Total number of requests made to the snoop filter.
system.tol2bus.snoop_filter.tot_snoops           1240                       # Total number of snoops made to the snoop filter.
system.clk_domain.clock                           250                       # Clock period in ticks
system.cpu.branchPred.lookups                 6498788                       # Number of BP lookups
system.cpu.branchPred.condPredicted           4677605                       # Number of conditional branches predicted
system.cpu.branchPred.condIncorrect             18945                       # Number of conditional branches incorrect
system.cpu.branchPred.BTBLookups              3417406                       # Number of BTB lookups
system.cpu.branchPred.BTBHits                 3406080                       # Number of BTB hits
system.cpu.branchPred.BTBHitPct             99.668579                       # BTB Hit Percentage
system.cpu.branchPred.RASUsed                  613737                       # Number of times the RAS was used to get a target.
system.cpu.branchPred.RASIncorrect                 16                       # Number of incorrect RAS predictions.
system.cpu.branchPred.indirectLookups          593714                       # Number of indirect predictor lookups.
system.cpu.branchPred.indirectHits             583259                       # Number of indirect target hits.
system.cpu.branchPred.indirectMisses            10455                       # Number of indirect misses.
system.cpu.branchPred.indirectMispredicted         1548                       # Number of mispredicted indirect branches.
system.cpu.commit.commitSquashedInsts        24523438                       # The number of squashed insts skipped by commit
system.cpu.commit.commitNonSpecStalls            5389                       # The number of times commit has been forced to stall to communicate backwards
system.cpu.commit.branchMispredicts             17847                       # The number of times a branch was mispredicted
system.cpu.commit.numCommittedDist::samples     99624364                       # Number of insts commited each cycle
system.cpu.commit.numCommittedDist::mean     1.666454                       # Number of insts commited each cycle
system.cpu.commit.numCommittedDist::stdev     2.565030                       # Number of insts commited each cycle
system.cpu.commit.numCommittedDist::underflows            0      0.00%      0.00% # Number of insts commited each cycle
system.cpu.commit.numCommittedDist::0        50256375     50.45%     50.45% # Number of insts commited each cycle
system.cpu.commit.numCommittedDist::1        19865861     19.94%     70.39% # Number of insts commited each cycle
system.cpu.commit.numCommittedDist::2         8643359      8.68%     79.06% # Number of insts commited each cycle
system.cpu.commit.numCommittedDist::3         3078840      3.09%     82.15% # Number of insts commited each cycle
system.cpu.commit.numCommittedDist::4         3162695      3.17%     85.33% # Number of insts commited each cycle
system.cpu.commit.numCommittedDist::5         1818158      1.83%     87.15% # Number of insts commited each cycle
system.cpu.commit.numCommittedDist::6         1170367      1.17%     88.33% # Number of insts commited each cycle
system.cpu.commit.numCommittedDist::7         2163088      2.17%     90.50% # Number of insts commited each cycle
system.cpu.commit.numCommittedDist::8         9465621      9.50%    100.00% # Number of insts commited each cycle
system.cpu.commit.numCommittedDist::overflows            0      0.00%    100.00% # Number of insts commited each cycle
system.cpu.commit.numCommittedDist::min_value            0                       # Number of insts commited each cycle
system.cpu.commit.numCommittedDist::max_value            8                       # Number of insts commited each cycle
system.cpu.commit.numCommittedDist::total     99624364                       # Number of insts commited each cycle
system.cpu.commit.instsCommitted            100000001                       # Number of instructions committed
system.cpu.commit.opsCommitted              166019455                       # Number of ops (including micro ops) committed
system.cpu.commit.memRefs                    39264133                       # Number of memory references committed
system.cpu.commit.loads                      30740931                       # Number of loads committed
system.cpu.commit.amos                              0                       # Number of atomic instructions committed
system.cpu.commit.membars                         176                       # Number of memory barriers committed
system.cpu.commit.branches                    4827028                       # Number of branches committed
system.cpu.commit.vector                            0                       # Number of committed Vector instructions.
system.cpu.commit.floating                   26165588                       # Number of committed floating point instructions.
system.cpu.commit.integer                   148225635                       # Number of committed integer instructions.
system.cpu.commit.functionCalls                531272                       # Number of function calls committed.
system.cpu.commit.committedInstType_0::No_OpClass      1046605      0.63%      0.63% # Class of committed instruction
system.cpu.commit.committedInstType_0::IntAlu    101615079     61.21%     61.84% # Class of committed instruction
system.cpu.commit.committedInstType_0::IntMult      6312256      3.80%     65.64% # Class of committed instruction
system.cpu.commit.committedInstType_0::IntDiv        97655      0.06%     65.70% # Class of committed instruction
system.cpu.commit.committedInstType_0::FloatAdd      1445015      0.87%     66.57% # Class of committed instruction
system.cpu.commit.committedInstType_0::FloatCmp            0      0.00%     66.57% # Class of committed instruction
system.cpu.commit.committedInstType_0::FloatCvt           32      0.00%     66.57% # Class of committed instruction
system.cpu.commit.committedInstType_0::FloatMult            0      0.00%     66.57% # Class of committed instruction
system.cpu.commit.committedInstType_0::FloatMultAcc            0      0.00%     66.57% # Class of committed instruction
system.cpu.commit.committedInstType_0::FloatDiv            0      0.00%     66.57% # Class of committed instruction
system.cpu.commit.committedInstType_0::FloatMisc            0      0.00%     66.57% # Class of committed instruction
system.cpu.commit.committedInstType_0::FloatSqrt            0      0.00%     66.57% # Class of committed instruction
system.cpu.commit.committedInstType_0::SimdAdd         2294      0.00%     66.57% # Class of committed instruction
system.cpu.commit.committedInstType_0::SimdAddAcc            0      0.00%     66.57% # Class of committed instruction
system.cpu.commit.committedInstType_0::SimdAlu      2855490      1.72%     68.29% # Class of committed instruction
system.cpu.commit.committedInstType_0::SimdCmp           66      0.00%     68.29% # Class of committed instruction
system.cpu.commit.committedInstType_0::SimdCvt         5352      0.00%     68.29% # Class of committed instruction
system.cpu.commit.committedInstType_0::SimdMisc      2865770      1.73%     70.02% # Class of committed instruction
system.cpu.commit.committedInstType_0::SimdMult          248      0.00%     70.02% # Class of committed instruction
system.cpu.commit.committedInstType_0::SimdMultAcc            0      0.00%     70.02% # Class of committed instruction
system.cpu.commit.committedInstType_0::SimdShift          900      0.00%     70.02% # Class of committed instruction
system.cpu.commit.committedInstType_0::SimdShiftAcc            0      0.00%     70.02% # Class of committed instruction
system.cpu.commit.committedInstType_0::SimdDiv            0      0.00%     70.02% # Class of committed instruction
system.cpu.commit.committedInstType_0::SimdSqrt            0      0.00%     70.02% # Class of committed instruction
system.cpu.commit.committedInstType_0::SimdFloatAdd      4779154      2.88%     72.90% # Class of committed instruction
system.cpu.commit.committedInstType_0::SimdFloatAlu            0      0.00%     72.90% # Class of committed instruction
system.cpu.commit.committedInstType_0::SimdFloatCmp            0      0.00%     72.90% # Class of committed instruction
system.cpu.commit.committedInstType_0::SimdFloatCvt      2384878      1.44%     74.34% # Class of committed instruction
system.cpu.commit.committedInstType_0::SimdFloatDiv           15      0.00%     74.34% # Class of committed instruction
system.cpu.commit.committedInstType_0::SimdFloatMisc            0      0.00%     74.34% # Class of committed instruction
system.cpu.commit.committedInstType_0::SimdFloatMult      3344513      2.01%     76.35% # Class of committed instruction
system.cpu.commit.committedInstType_0::SimdFloatMultAcc            0      0.00%     76.35% # Class of committed instruction
system.cpu.commit.committedInstType_0::SimdFloatSqrt            0      0.00%     76.35% # Class of committed instruction
system.cpu.commit.committedInstType_0::SimdReduceAdd            0      0.00%     76.35% # Class of committed instruction
system.cpu.commit.committedInstType_0::SimdReduceAlu            0      0.00%     76.35% # Class of committed instruction
system.cpu.commit.committedInstType_0::SimdReduceCmp            0      0.00%     76.35% # Class of committed instruction
system.cpu.commit.committedInstType_0::SimdFloatReduceAdd            0      0.00%     76.35% # Class of committed instruction
system.cpu.commit.committedInstType_0::SimdFloatReduceCmp            0      0.00%     76.35% # Class of committed instruction
system.cpu.commit.committedInstType_0::SimdAes            0      0.00%     76.35% # Class of committed instruction
system.cpu.commit.committedInstType_0::SimdAesMix            0      0.00%     76.35% # Class of committed instruction
system.cpu.commit.committedInstType_0::SimdSha1Hash            0      0.00%     76.35% # Class of committed instruction
system.cpu.commit.committedInstType_0::SimdSha1Hash2            0      0.00%     76.35% # Class of committed instruction
system.cpu.commit.committedInstType_0::SimdSha256Hash            0      0.00%     76.35% # Class of committed instruction
system.cpu.commit.committedInstType_0::SimdSha256Hash2            0      0.00%     76.35% # Class of committed instruction
system.cpu.commit.committedInstType_0::SimdShaSigma2            0      0.00%     76.35% # Class of committed instruction
system.cpu.commit.committedInstType_0::SimdShaSigma3            0      0.00%     76.35% # Class of committed instruction
system.cpu.commit.committedInstType_0::SimdPredAlu            0      0.00%     76.35% # Class of committed instruction
system.cpu.commit.committedInstType_0::MemRead     24849866     14.97%     91.32% # Class of committed instruction
system.cpu.commit.committedInstType_0::MemWrite      7834725      4.72%     96.04% # Class of committed instruction
system.cpu.commit.committedInstType_0::FloatMemRead      5891065      3.55%     99.59% # Class of committed instruction
system.cpu.commit.committedInstType_0::FloatMemWrite       688477      0.41%    100.00% # Class of committed instruction
system.cpu.commit.committedInstType_0::IprAccess            0      0.00%    100.00% # Class of committed instruction
system.cpu.commit.committedInstType_0::InstPrefetch            0      0.00%    100.00% # Class of committed instruction
system.cpu.commit.committedInstType_0::total    166019455                       # Class of committed instruction
system.cpu.commit.commitEligibleSamples       9465621                       # number cycles where commit BW limit reached
system.cpu.dcache.demand_hits::.cpu.data     42484458                       # number of demand (read+write) hits
system.cpu.dcache.demand_hits::total         42484458                       # number of demand (read+write) hits
system.cpu.dcache.overall_hits::.cpu.data     43820683                       # number of overall hits
system.cpu.dcache.overall_hits::total        43820683                       # number of overall hits
system.cpu.dcache.demand_misses::.cpu.data       528513                       # number of demand (read+write) misses
system.cpu.dcache.demand_misses::total         528513                       # number of demand (read+write) misses
system.cpu.dcache.overall_misses::.cpu.data       682678                       # number of overall misses
system.cpu.dcache.overall_misses::total        682678                       # number of overall misses
system.cpu.dcache.demand_miss_latency::.cpu.data  34328018940                       # number of demand (read+write) miss cycles
system.cpu.dcache.demand_miss_latency::total  34328018940                       # number of demand (read+write) miss cycles
system.cpu.dcache.overall_miss_latency::.cpu.data  34328018940                       # number of overall miss cycles
system.cpu.dcache.overall_miss_latency::total  34328018940                       # number of overall miss cycles
system.cpu.dcache.demand_accesses::.cpu.data     43012971                       # number of demand (read+write) accesses
system.cpu.dcache.demand_accesses::total     43012971                       # number of demand (read+write) accesses
system.cpu.dcache.overall_accesses::.cpu.data     44503361                       # number of overall (read+write) accesses
system.cpu.dcache.overall_accesses::total     44503361                       # number of overall (read+write) accesses
system.cpu.dcache.demand_miss_rate::.cpu.data     0.012287                       # miss rate for demand accesses
system.cpu.dcache.demand_miss_rate::total     0.012287                       # miss rate for demand accesses
system.cpu.dcache.overall_miss_rate::.cpu.data     0.015340                       # miss rate for overall accesses
system.cpu.dcache.overall_miss_rate::total     0.015340                       # miss rate for overall accesses
system.cpu.dcache.demand_avg_miss_latency::.cpu.data 64952.080535                       # average overall miss latency
system.cpu.dcache.demand_avg_miss_latency::total 64952.080535                       # average overall miss latency
system.cpu.dcache.overall_avg_miss_latency::.cpu.data 50284.349195                       # average overall miss latency
system.cpu.dcache.overall_avg_miss_latency::total 50284.349195                       # average overall miss latency
system.cpu.dcache.blocked_cycles::no_mshrs       493540                       # number of cycles access was blocked
system.cpu.dcache.blocked_cycles::no_targets          107                       # number of cycles access was blocked
system.cpu.dcache.blocked::no_mshrs              8782                       # number of cycles access was blocked
system.cpu.dcache.blocked::no_targets               2                       # number of cycles access was blocked
system.cpu.dcache.avg_blocked_cycles::no_mshrs    56.199043                       # average number of cycles each access was blocked
system.cpu.dcache.avg_blocked_cycles::no_targets    53.500000                       # average number of cycles each access was blocked
system.cpu.dcache.writebacks::.writebacks       172375                       # number of writebacks
system.cpu.dcache.writebacks::total            172375                       # number of writebacks
system.cpu.dcache.demand_mshr_hits::.cpu.data       162974                       # number of demand (read+write) MSHR hits
system.cpu.dcache.demand_mshr_hits::total       162974                       # number of demand (read+write) MSHR hits
system.cpu.dcache.overall_mshr_hits::.cpu.data       162974                       # number of overall MSHR hits
system.cpu.dcache.overall_mshr_hits::total       162974                       # number of overall MSHR hits
system.cpu.dcache.demand_mshr_misses::.cpu.data       365539                       # number of demand (read+write) MSHR misses
system.cpu.dcache.demand_mshr_misses::total       365539                       # number of demand (read+write) MSHR misses
system.cpu.dcache.overall_mshr_misses::.cpu.data       422442                       # number of overall MSHR misses
system.cpu.dcache.overall_mshr_misses::total       422442                       # number of overall MSHR misses
system.cpu.dcache.demand_mshr_miss_latency::.cpu.data  24233115441                       # number of demand (read+write) MSHR miss cycles
system.cpu.dcache.demand_mshr_miss_latency::total  24233115441                       # number of demand (read+write) MSHR miss cycles
system.cpu.dcache.overall_mshr_miss_latency::.cpu.data  28521423441                       # number of overall MSHR miss cycles
system.cpu.dcache.overall_mshr_miss_latency::total  28521423441                       # number of overall MSHR miss cycles
system.cpu.dcache.demand_mshr_miss_rate::.cpu.data     0.008498                       # mshr miss rate for demand accesses
system.cpu.dcache.demand_mshr_miss_rate::total     0.008498                       # mshr miss rate for demand accesses
system.cpu.dcache.overall_mshr_miss_rate::.cpu.data     0.009492                       # mshr miss rate for overall accesses
system.cpu.dcache.overall_mshr_miss_rate::total     0.009492                       # mshr miss rate for overall accesses
system.cpu.dcache.demand_avg_mshr_miss_latency::.cpu.data 66294.199637                       # average overall mshr miss latency
system.cpu.dcache.demand_avg_mshr_miss_latency::total 66294.199637                       # average overall mshr miss latency
system.cpu.dcache.overall_avg_mshr_miss_latency::.cpu.data 67515.596084                       # average overall mshr miss latency
system.cpu.dcache.overall_avg_mshr_miss_latency::total 67515.596084                       # average overall mshr miss latency
system.cpu.dcache.replacements                 421929                       # number of replacements
system.cpu.dcache.ReadReq_hits::.cpu.data     34129015                       # number of ReadReq hits
system.cpu.dcache.ReadReq_hits::total        34129015                       # number of ReadReq hits
system.cpu.dcache.ReadReq_misses::.cpu.data       360672                       # number of ReadReq misses
system.cpu.dcache.ReadReq_misses::total        360672                       # number of ReadReq misses
system.cpu.dcache.ReadReq_miss_latency::.cpu.data  22004072000                       # number of ReadReq miss cycles
system.cpu.dcache.ReadReq_miss_latency::total  22004072000                       # number of ReadReq miss cycles
system.cpu.dcache.ReadReq_accesses::.cpu.data     34489687                       # number of ReadReq accesses(hits+misses)
system.cpu.dcache.ReadReq_accesses::total     34489687                       # number of ReadReq accesses(hits+misses)
system.cpu.dcache.ReadReq_miss_rate::.cpu.data     0.010457                       # miss rate for ReadReq accesses
system.cpu.dcache.ReadReq_miss_rate::total     0.010457                       # miss rate for ReadReq accesses
system.cpu.dcache.ReadReq_avg_miss_latency::.cpu.data 61008.539615                       # average ReadReq miss latency
system.cpu.dcache.ReadReq_avg_miss_latency::total 61008.539615                       # average ReadReq miss latency
system.cpu.dcache.ReadReq_mshr_hits::.cpu.data       162962                       # number of ReadReq MSHR hits
system.cpu.dcache.ReadReq_mshr_hits::total       162962                       # number of ReadReq MSHR hits
system.cpu.dcache.ReadReq_mshr_misses::.cpu.data       197710                       # number of ReadReq MSHR misses
system.cpu.dcache.ReadReq_mshr_misses::total       197710                       # number of ReadReq MSHR misses
system.cpu.dcache.ReadReq_mshr_miss_latency::.cpu.data  12077476500                       # number of ReadReq MSHR miss cycles
system.cpu.dcache.ReadReq_mshr_miss_latency::total  12077476500                       # number of ReadReq MSHR miss cycles
system.cpu.dcache.ReadReq_mshr_miss_rate::.cpu.data     0.005732                       # mshr miss rate for ReadReq accesses
system.cpu.dcache.ReadReq_mshr_miss_rate::total     0.005732                       # mshr miss rate for ReadReq accesses
system.cpu.dcache.ReadReq_avg_mshr_miss_latency::.cpu.data 61086.826665                       # average ReadReq mshr miss latency
system.cpu.dcache.ReadReq_avg_mshr_miss_latency::total 61086.826665                       # average ReadReq mshr miss latency
system.cpu.dcache.WriteReq_hits::.cpu.data      8355443                       # number of WriteReq hits
system.cpu.dcache.WriteReq_hits::total        8355443                       # number of WriteReq hits
system.cpu.dcache.WriteReq_misses::.cpu.data       167841                       # number of WriteReq misses
system.cpu.dcache.WriteReq_misses::total       167841                       # number of WriteReq misses
system.cpu.dcache.WriteReq_miss_latency::.cpu.data  12323946940                       # number of WriteReq miss cycles
system.cpu.dcache.WriteReq_miss_latency::total  12323946940                       # number of WriteReq miss cycles
system.cpu.dcache.WriteReq_accesses::.cpu.data      8523284                       # number of WriteReq accesses(hits+misses)
system.cpu.dcache.WriteReq_accesses::total      8523284                       # number of WriteReq accesses(hits+misses)
system.cpu.dcache.WriteReq_miss_rate::.cpu.data     0.019692                       # miss rate for WriteReq accesses
system.cpu.dcache.WriteReq_miss_rate::total     0.019692                       # miss rate for WriteReq accesses
system.cpu.dcache.WriteReq_avg_miss_latency::.cpu.data 73426.319791                       # average WriteReq miss latency
system.cpu.dcache.WriteReq_avg_miss_latency::total 73426.319791                       # average WriteReq miss latency
system.cpu.dcache.WriteReq_mshr_hits::.cpu.data           12                       # number of WriteReq MSHR hits
system.cpu.dcache.WriteReq_mshr_hits::total           12                       # number of WriteReq MSHR hits
system.cpu.dcache.WriteReq_mshr_misses::.cpu.data       167829                       # number of WriteReq MSHR misses
system.cpu.dcache.WriteReq_mshr_misses::total       167829                       # number of WriteReq MSHR misses
system.cpu.dcache.WriteReq_mshr_miss_latency::.cpu.data  12155638941                       # number of WriteReq MSHR miss cycles
system.cpu.dcache.WriteReq_mshr_miss_latency::total  12155638941                       # number of WriteReq MSHR miss cycles
system.cpu.dcache.WriteReq_mshr_miss_rate::.cpu.data     0.019691                       # mshr miss rate for WriteReq accesses
system.cpu.dcache.WriteReq_mshr_miss_rate::total     0.019691                       # mshr miss rate for WriteReq accesses
system.cpu.dcache.WriteReq_avg_mshr_miss_latency::.cpu.data 72428.715782                       # average WriteReq mshr miss latency
system.cpu.dcache.WriteReq_avg_mshr_miss_latency::total 72428.715782                       # average WriteReq mshr miss latency
system.cpu.dcache.SoftPFReq_hits::.cpu.data      1336225                       # number of SoftPFReq hits
system.cpu.dcache.SoftPFReq_hits::total       1336225                       # number of SoftPFReq hits
system.cpu.dcache.SoftPFReq_misses::.cpu.data       154165                       # number of SoftPFReq misses
system.cpu.dcache.SoftPFReq_misses::total       154165                       # number of SoftPFReq misses
system.cpu.dcache.SoftPFReq_accesses::.cpu.data      1490390                       # number of SoftPFReq accesses(hits+misses)
system.cpu.dcache.SoftPFReq_accesses::total      1490390                       # number of SoftPFReq accesses(hits+misses)
system.cpu.dcache.SoftPFReq_miss_rate::.cpu.data     0.103439                       # miss rate for SoftPFReq accesses
system.cpu.dcache.SoftPFReq_miss_rate::total     0.103439                       # miss rate for SoftPFReq accesses
system.cpu.dcache.SoftPFReq_mshr_misses::.cpu.data        56903                       # number of SoftPFReq MSHR misses
system.cpu.dcache.SoftPFReq_mshr_misses::total        56903                       # number of SoftPFReq MSHR misses
system.cpu.dcache.SoftPFReq_mshr_miss_latency::.cpu.data   4288308000                       # number of SoftPFReq MSHR miss cycles
system.cpu.dcache.SoftPFReq_mshr_miss_latency::total   4288308000                       # number of SoftPFReq MSHR miss cycles
system.cpu.dcache.SoftPFReq_mshr_miss_rate::.cpu.data     0.038180                       # mshr miss rate for SoftPFReq accesses
system.cpu.dcache.SoftPFReq_mshr_miss_rate::total     0.038180                       # mshr miss rate for SoftPFReq accesses
system.cpu.dcache.SoftPFReq_avg_mshr_miss_latency::.cpu.data 75361.720823                       # average SoftPFReq mshr miss latency
system.cpu.dcache.SoftPFReq_avg_mshr_miss_latency::total 75361.720823                       # average SoftPFReq mshr miss latency
system.cpu.dcache.power_state.pwrStateResidencyTicks::UNDEFINED  51532577500                       # Cumulative time (in ticks) in various power states
system.cpu.dcache.tags.tagsinuse           511.691206                       # Cycle average of tags in use
system.cpu.dcache.tags.total_refs            44243126                       # Total number of references to valid blocks.
system.cpu.dcache.tags.sampled_refs            422441                       # Sample count of references to valid blocks.
system.cpu.dcache.tags.avg_refs            104.732083                       # Average number of references to valid blocks.
system.cpu.dcache.tags.warmup_cycle            163000                       # Cycle when the warmup percentage was hit.
system.cpu.dcache.tags.occ_blocks::.cpu.data   511.691206                       # Average occupied blocks per requestor
system.cpu.dcache.tags.occ_percent::.cpu.data     0.999397                       # Average percentage of cache occupancy
system.cpu.dcache.tags.occ_percent::total     0.999397                       # Average percentage of cache occupancy
system.cpu.dcache.tags.occ_task_id_blocks::1024          512                       # Occupied blocks per task id
system.cpu.dcache.tags.age_task_id_blocks_1024::0           57                       # Occupied blocks per task id
system.cpu.dcache.tags.age_task_id_blocks_1024::1          355                       # Occupied blocks per task id
system.cpu.dcache.tags.age_task_id_blocks_1024::2           93                       # Occupied blocks per task id
system.cpu.dcache.tags.age_task_id_blocks_1024::3            7                       # Occupied blocks per task id
system.cpu.dcache.tags.occ_task_id_percent::1024            1                       # Percentage of cache occupancy per task id
system.cpu.dcache.tags.tag_accesses          89429163                       # Number of tag accesses
system.cpu.dcache.tags.data_accesses         89429163                       # Number of data accesses
system.cpu.dcache.tags.power_state.pwrStateResidencyTicks::UNDEFINED  51532577500                       # Cumulative time (in ticks) in various power states
system.cpu.decode.idleCycles                  7699241                       # Number of cycles decode is idle
system.cpu.decode.blockedCycles              69227770                       # Number of cycles decode is blocked
system.cpu.decode.runCycles                  10958803                       # Number of cycles decode is running
system.cpu.decode.unblockCycles              14682202                       # Number of cycles decode is unblocking
system.cpu.decode.squashCycles                 297936                       # Number of cycles decode is squashing
system.cpu.decode.branchResolved              3079365                       # Number of times decode resolved a  branch
system.cpu.decode.branchMispred                  1804                       # Number of times decode detected a branch misprediction
system.cpu.decode.decodedInsts              198563242                       # Number of instructions handled by decode
system.cpu.decode.squashedInsts                  8598                       # Number of squashed instructions handled by decode
system.cpu.dtb.rdAccesses                    37973427                       # TLB accesses on read requests
system.cpu.dtb.wrAccesses                    16874206                       # TLB accesses on write requests
system.cpu.dtb.rdMisses                          5615                       # TLB misses on read requests
system.cpu.dtb.wrMisses                        188530                       # TLB misses on write requests
system.cpu.dtb.walker.power_state.pwrStateResidencyTicks::UNDEFINED  51532577500                       # Cumulative time (in ticks) in various power states
system.cpu.dtb_walker_cache.blocked_cycles::no_mshrs            0                       # number of cycles access was blocked
system.cpu.dtb_walker_cache.blocked_cycles::no_targets            0                       # number of cycles access was blocked
system.cpu.dtb_walker_cache.blocked::no_mshrs            0                       # number of cycles access was blocked
system.cpu.dtb_walker_cache.blocked::no_targets            0                       # number of cycles access was blocked
system.cpu.dtb_walker_cache.avg_blocked_cycles::no_mshrs          nan                       # average number of cycles each access was blocked
system.cpu.dtb_walker_cache.avg_blocked_cycles::no_targets          nan                       # average number of cycles each access was blocked
system.cpu.dtb_walker_cache.replacements            0                       # number of replacements
system.cpu.dtb_walker_cache.power_state.pwrStateResidencyTicks::UNDEFINED  51532577500                       # Cumulative time (in ticks) in various power states
system.cpu.dtb_walker_cache.tags.tagsinuse            0                       # Cycle average of tags in use
system.cpu.dtb_walker_cache.tags.total_refs            0                       # Total number of references to valid blocks.
system.cpu.dtb_walker_cache.tags.sampled_refs            0                       # Sample count of references to valid blocks.
system.cpu.dtb_walker_cache.tags.avg_refs          nan                       # Average number of references to valid blocks.
system.cpu.dtb_walker_cache.tags.warmup_cycle            0                       # Cycle when the warmup percentage was hit.
system.cpu.dtb_walker_cache.tags.tag_accesses            0                       # Number of tag accesses
system.cpu.dtb_walker_cache.tags.data_accesses            0                       # Number of data accesses
system.cpu.dtb_walker_cache.tags.power_state.pwrStateResidencyTicks::UNDEFINED  51532577500                       # Cumulative time (in ticks) in various power states
system.cpu.fetch.icacheStallCycles           12941682                       # Number of cycles fetch is stalled on an Icache miss
system.cpu.fetch.insts                      118031048                       # Number of instructions fetch has processed
system.cpu.fetch.branches                     6498788                       # Number of branches that fetch encountered
system.cpu.fetch.predictedBranches            4603076                       # Number of branches that fetch has predicted taken
system.cpu.fetch.cycles                      89618742                       # Number of cycles fetch has run and was not squashing or blocked
system.cpu.fetch.squashCycles                  599380                       # Number of cycles fetch has spent squashing
system.cpu.fetch.miscStallCycles                  725                       # Number of cycles fetch has spent waiting on interrupts,or bad addresses, or out of MSHRs
system.cpu.fetch.pendingTrapStallCycles          5077                       # Number of stall cycles due to pending traps
system.cpu.fetch.pendingQuiesceStallCycles            9                       # Number of stall cycles due to pending quiesce instructions
system.cpu.fetch.icacheWaitRetryStallCycles           27                       # Number of stall cycles due to full MSHR
system.cpu.fetch.cacheLines                  12655706                       # Number of cache lines fetched
system.cpu.fetch.icacheSquashes                  9618                       # Number of outstanding Icache misses that were squashed
system.cpu.fetch.nisnDist::samples          102865952                       # Number of instructions fetched each cycle (Total)
system.cpu.fetch.nisnDist::mean              2.031528                       # Number of instructions fetched each cycle (Total)
system.cpu.fetch.nisnDist::stdev             3.202789                       # Number of instructions fetched each cycle (Total)
system.cpu.fetch.nisnDist::underflows               0      0.00%      0.00% # Number of instructions fetched each cycle (Total)
system.cpu.fetch.nisnDist::0                 68277568     66.38%     66.38% # Number of instructions fetched each cycle (Total)
system.cpu.fetch.nisnDist::1                  2006414      1.95%     68.33% # Number of instructions fetched each cycle (Total)
system.cpu.fetch.nisnDist::2                  3575373      3.48%     71.80% # Number of instructions fetched each cycle (Total)
system.cpu.fetch.nisnDist::3                  2548972      2.48%     74.28% # Number of instructions fetched each cycle (Total)
system.cpu.fetch.nisnDist::4                  2029120      1.97%     76.25% # Number of instructions fetched each cycle (Total)
system.cpu.fetch.nisnDist::5                  2073927      2.02%     78.27% # Number of instructions fetched each cycle (Total)
system.cpu.fetch.nisnDist::6                  1371601      1.33%     79.60% # Number of instructions fetched each cycle (Total)
system.cpu.fetch.nisnDist::7                  2408531      2.34%     81.94% # Number of instructions fetched each cycle (Total)
system.cpu.fetch.nisnDist::8                 18574446     18.06%    100.00% # Number of instructions fetched each cycle (Total)
system.cpu.fetch.nisnDist::overflows                0      0.00%    100.00% # Number of instructions fetched each cycle (Total)
system.cpu.fetch.nisnDist::min_value                0                       # Number of instructions fetched each cycle (Total)
system.cpu.fetch.nisnDist::max_value                8                       # Number of instructions fetched each cycle (Total)
system.cpu.fetch.nisnDist::total            102865952                       # Number of instructions fetched each cycle (Total)
system.cpu.fetch.branchRate                  0.063055                       # Number of branch fetches per cycle
system.cpu.fetch.rate                        1.145208                       # Number of inst fetches per cycle
system.cpu.icache.demand_hits::.cpu.inst     12651102                       # number of demand (read+write) hits
system.cpu.icache.demand_hits::total         12651102                       # number of demand (read+write) hits
system.cpu.icache.overall_hits::.cpu.inst     12651102                       # number of overall hits
system.cpu.icache.overall_hits::total        12651102                       # number of overall hits
system.cpu.icache.demand_misses::.cpu.inst         4604                       # number of demand (read+write) misses
system.cpu.icache.demand_misses::total           4604                       # number of demand (read+write) misses
system.cpu.icache.overall_misses::.cpu.inst         4604                       # number of overall misses
system.cpu.icache.overall_misses::total          4604                       # number of overall misses
system.cpu.icache.demand_miss_latency::.cpu.inst    274567500                       # number of demand (read+write) miss cycles
system.cpu.icache.demand_miss_latency::total    274567500                       # number of demand (read+write) miss cycles
system.cpu.icache.overall_miss_latency::.cpu.inst    274567500                       # number of overall miss cycles
system.cpu.icache.overall_miss_latency::total    274567500                       # number of overall miss cycles
system.cpu.icache.demand_accesses::.cpu.inst     12655706                       # number of demand (read+write) accesses
system.cpu.icache.demand_accesses::total     12655706                       # number of demand (read+write) accesses
system.cpu.icache.overall_accesses::.cpu.inst     12655706                       # number of overall (read+write) accesses
system.cpu.icache.overall_accesses::total     12655706                       # number of overall (read+write) accesses
system.cpu.icache.demand_miss_rate::.cpu.inst     0.000364                       # miss rate for demand accesses
system.cpu.icache.demand_miss_rate::total     0.000364                       # miss rate for demand accesses
system.cpu.icache.overall_miss_rate::.cpu.inst     0.000364                       # miss rate for overall accesses
system.cpu.icache.overall_miss_rate::total     0.000364                       # miss rate for overall accesses
system.cpu.icache.demand_avg_miss_latency::.cpu.inst 59636.728931                       # average overall miss latency
system.cpu.icache.demand_avg_miss_latency::total 59636.728931                       # average overall miss latency
system.cpu.icache.overall_avg_miss_latency::.cpu.inst 59636.728931                       # average overall miss latency
system.cpu.icache.overall_avg_miss_latency::total 59636.728931                       # average overall miss latency
system.cpu.icache.blocked_cycles::no_mshrs          716                       # number of cycles access was blocked
system.cpu.icache.blocked_cycles::no_targets            0                       # number of cycles access was blocked
system.cpu.icache.blocked::no_mshrs                15                       # number of cycles access was blocked
system.cpu.icache.blocked::no_targets               0                       # number of cycles access was blocked
system.cpu.icache.avg_blocked_cycles::no_mshrs    47.733333                       # average number of cycles each access was blocked
system.cpu.icache.avg_blocked_cycles::no_targets          nan                       # average number of cycles each access was blocked
system.cpu.icache.writebacks::.writebacks         3229                       # number of writebacks
system.cpu.icache.writebacks::total              3229                       # number of writebacks
system.cpu.icache.demand_mshr_hits::.cpu.inst          862                       # number of demand (read+write) MSHR hits
system.cpu.icache.demand_mshr_hits::total          862                       # number of demand (read+write) MSHR hits
system.cpu.icache.overall_mshr_hits::.cpu.inst          862                       # number of overall MSHR hits
system.cpu.icache.overall_mshr_hits::total          862                       # number of overall MSHR hits
system.cpu.icache.demand_mshr_misses::.cpu.inst         3742                       # number of demand (read+write) MSHR misses
system.cpu.icache.demand_mshr_misses::total         3742                       # number of demand (read+write) MSHR misses
system.cpu.icache.overall_mshr_misses::.cpu.inst         3742                       # number of overall MSHR misses
system.cpu.icache.overall_mshr_misses::total         3742                       # number of overall MSHR misses
system.cpu.icache.demand_mshr_miss_latency::.cpu.inst    224443500                       # number of demand (read+write) MSHR miss cycles
system.cpu.icache.demand_mshr_miss_latency::total    224443500                       # number of demand (read+write) MSHR miss cycles
system.cpu.icache.overall_mshr_miss_latency::.cpu.inst    224443500                       # number of overall MSHR miss cycles
system.cpu.icache.overall_mshr_miss_latency::total    224443500                       # number of overall MSHR miss cycles
system.cpu.icache.demand_mshr_miss_rate::.cpu.inst     0.000296                       # mshr miss rate for demand accesses
system.cpu.icache.demand_mshr_miss_rate::total     0.000296                       # mshr miss rate for demand accesses
system.cpu.icache.overall_mshr_miss_rate::.cpu.inst     0.000296                       # mshr miss rate for overall accesses
system.cpu.icache.overall_mshr_miss_rate::total     0.000296                       # mshr miss rate for overall accesses
system.cpu.icache.demand_avg_mshr_miss_latency::.cpu.inst 59979.556387                       # average overall mshr miss latency
system.cpu.icache.demand_avg_mshr_miss_latency::total 59979.556387                       # average overall mshr miss latency
system.cpu.icache.overall_avg_mshr_miss_latency::.cpu.inst 59979.556387                       # average overall mshr miss latency
system.cpu.icache.overall_avg_mshr_miss_latency::total 59979.556387                       # average overall mshr miss latency
system.cpu.icache.replacements                   3229                       # number of replacements
system.cpu.icache.ReadReq_hits::.cpu.inst     12651102                       # number of ReadReq hits
system.cpu.icache.ReadReq_hits::total        12651102                       # number of ReadReq hits
system.cpu.icache.ReadReq_misses::.cpu.inst         4604                       # number of ReadReq misses
system.cpu.icache.ReadReq_misses::total          4604                       # number of ReadReq misses
system.cpu.icache.ReadReq_miss_latency::.cpu.inst    274567500                       # number of ReadReq miss cycles
system.cpu.icache.ReadReq_miss_latency::total    274567500                       # number of ReadReq miss cycles
system.cpu.icache.ReadReq_accesses::.cpu.inst     12655706                       # number of ReadReq accesses(hits+misses)
system.cpu.icache.ReadReq_accesses::total     12655706                       # number of ReadReq accesses(hits+misses)
system.cpu.icache.ReadReq_miss_rate::.cpu.inst     0.000364                       # miss rate for ReadReq accesses
system.cpu.icache.ReadReq_miss_rate::total     0.000364                       # miss rate for ReadReq accesses
system.cpu.icache.ReadReq_avg_miss_latency::.cpu.inst 59636.728931                       # average ReadReq miss latency
system.cpu.icache.ReadReq_avg_miss_latency::total 59636.728931                       # average ReadReq miss latency
system.cpu.icache.ReadReq_mshr_hits::.cpu.inst          862                       # number of ReadReq MSHR hits
system.cpu.icache.ReadReq_mshr_hits::total          862                       # number of ReadReq MSHR hits
system.cpu.icache.ReadReq_mshr_misses::.cpu.inst         3742                       # number of ReadReq MSHR misses
system.cpu.icache.ReadReq_mshr_misses::total         3742                       # number of ReadReq MSHR misses
system.cpu.icache.ReadReq_mshr_miss_latency::.cpu.inst    224443500                       # number of ReadReq MSHR miss cycles
system.cpu.icache.ReadReq_mshr_miss_latency::total    224443500                       # number of ReadReq MSHR miss cycles
system.cpu.icache.ReadReq_mshr_miss_rate::.cpu.inst     0.000296                       # mshr miss rate for ReadReq accesses
system.cpu.icache.ReadReq_mshr_miss_rate::total     0.000296                       # mshr miss rate for ReadReq accesses
system.cpu.icache.ReadReq_avg_mshr_miss_latency::.cpu.inst 59979.556387                       # average ReadReq mshr miss latency
system.cpu.icache.ReadReq_avg_mshr_miss_latency::total 59979.556387                       # average ReadReq mshr miss latency
system.cpu.icache.power_state.pwrStateResidencyTicks::UNDEFINED  51532577500                       # Cumulative time (in ticks) in various power states
system.cpu.icache.tags.tagsinuse           511.359615                       # Cycle average of tags in use
system.cpu.icache.tags.total_refs            12654844                       # Total number of references to valid blocks.
system.cpu.icache.tags.sampled_refs              3742                       # Sample count of references to valid blocks.
system.cpu.icache.tags.avg_refs           3381.839658                       # Average number of references to valid blocks.
system.cpu.icache.tags.warmup_cycle             79500                       # Cycle when the warmup percentage was hit.
system.cpu.icache.tags.occ_blocks::.cpu.inst   511.359615                       # Average occupied blocks per requestor
system.cpu.icache.tags.occ_percent::.cpu.inst     0.998749                       # Average percentage of cache occupancy
system.cpu.icache.tags.occ_percent::total     0.998749                       # Average percentage of cache occupancy
system.cpu.icache.tags.occ_task_id_blocks::1024          512                       # Occupied blocks per task id
system.cpu.icache.tags.age_task_id_blocks_1024::3           12                       # Occupied blocks per task id
system.cpu.icache.tags.age_task_id_blocks_1024::4          500                       # Occupied blocks per task id
system.cpu.icache.tags.occ_task_id_percent::1024            1                       # Percentage of cache occupancy per task id
system.cpu.icache.tags.tag_accesses          25315154                       # Number of tag accesses
system.cpu.icache.tags.data_accesses         25315154                       # Number of data accesses
system.cpu.icache.tags.power_state.pwrStateResidencyTicks::UNDEFINED  51532577500                       # Cumulative time (in ticks) in various power states
system.cpu.interrupts.clk_domain.clock           8000                       # Clock period in ticks
system.cpu.itb.rdAccesses                           0                       # TLB accesses on read requests
system.cpu.itb.wrAccesses                    12656466                       # TLB accesses on write requests
system.cpu.itb.rdMisses                             0                       # TLB misses on read requests
system.cpu.itb.wrMisses                          1023                       # TLB misses on write requests
system.cpu.itb.walker.power_state.pwrStateResidencyTicks::UNDEFINED  51532577500                       # Cumulative time (in ticks) in various power states
system.cpu.itb_walker_cache.blocked_cycles::no_mshrs            0                       # number of cycles access was blocked
system.cpu.itb_walker_cache.blocked_cycles::no_targets            0                       # number of cycles access was blocked
system.cpu.itb_walker_cache.blocked::no_mshrs            0                       # number of cycles access was blocked
system.cpu.itb_walker_cache.blocked::no_targets            0                       # number of cycles access was blocked
system.cpu.itb_walker_cache.avg_blocked_cycles::no_mshrs          nan                       # average number of cycles each access was blocked
system.cpu.itb_walker_cache.avg_blocked_cycles::no_targets          nan                       # average number of cycles each access was blocked
system.cpu.itb_walker_cache.replacements            0                       # number of replacements
system.cpu.itb_walker_cache.power_state.pwrStateResidencyTicks::UNDEFINED  51532577500                       # Cumulative time (in ticks) in various power states
system.cpu.itb_walker_cache.tags.tagsinuse            0                       # Cycle average of tags in use
system.cpu.itb_walker_cache.tags.total_refs            0                       # Total number of references to valid blocks.
system.cpu.itb_walker_cache.tags.sampled_refs            0                       # Sample count of references to valid blocks.
system.cpu.itb_walker_cache.tags.avg_refs          nan                       # Average number of references to valid blocks.
system.cpu.itb_walker_cache.tags.warmup_cycle            0                       # Cycle when the warmup percentage was hit.
system.cpu.itb_walker_cache.tags.tag_accesses            0                       # Number of tag accesses
system.cpu.itb_walker_cache.tags.data_accesses            0                       # Number of data accesses
system.cpu.itb_walker_cache.tags.power_state.pwrStateResidencyTicks::UNDEFINED  51532577500                       # Cumulative time (in ticks) in various power states
system.cpu.lsq0.forwLoads                     1983028                       # Number of loads that had data forwarded from stores
system.cpu.lsq0.squashedLoads                 7323398                       # Number of loads squashed
system.cpu.lsq0.ignoredResponses                  110                       # Number of memory responses ignored because the instruction is squashed
system.cpu.lsq0.memOrderViolation                 596                       # Number of memory ordering violations
system.cpu.lsq0.squashedStores                8994362                       # Number of stores squashed
system.cpu.lsq0.rescheduledLoads                 9566                       # Number of loads that were rescheduled
system.cpu.lsq0.blockedByCache                   7957                       # Number of times an access to memory failed due to the cache being blocked
system.cpu.power_state.pwrStateResidencyTicks::ON  51532577500                       # Cumulative time (in ticks) in various power states
system.cpu.rename.squashCycles                 297936                       # Number of cycles rename is squashing
system.cpu.rename.idleCycles                 12422160                       # Number of cycles rename is idle
system.cpu.rename.blockCycles                25589320                       # Number of cycles rename is blocking
system.cpu.rename.serializeStallCycles           3022                       # count of cycles rename stalledfor serializing inst
system.cpu.rename.runCycles                  20692021                       # Number of cycles rename is running
system.cpu.rename.unblockCycles              43861493                       # Number of cycles rename is unblocking
system.cpu.rename.renamedInsts              196647772                       # Number of instructions processed by rename
system.cpu.rename.ROBFullEvents                 10690                       # Number of times rename has blocked due to ROB full
system.cpu.rename.IQFullEvents               22034786                       # Number of times rename has blocked due to IQ full
system.cpu.rename.LQFullEvents                1538132                       # Number of times rename has blocked due to LQ full
system.cpu.rename.SQFullEvents               17159865                       # Number of times rename has blocked due to SQ full
system.cpu.rename.renamedOperands           249324201                       # Number of destination operands rename has renamed
system.cpu.rename.lookups                   479007587                       # Number of register rename lookups that rename has made
system.cpu.rename.intLookups                324512175                       # Number of integer rename lookups
system.cpu.rename.fpLookups                  48480563                       # Number of floating rename lookups
system.cpu.rename.committedMaps             225115857                       # Number of HB maps that are committed
system.cpu.rename.undoneMaps                 24208212                       # Number of HB maps that are undone due to squashing
system.cpu.rename.serializing                      41                       # count of serializing insts renamed
system.cpu.rename.tempSerializing                  26                       # count of temporary serializing insts renamed
system.cpu.rename.skidInsts                  66692655                       # count of insts added to the skid buffer
system.cpu.rob.reads                        277067421                       # The number of ROB reads
system.cpu.rob.writes                       384327782                       # The number of ROB writes
system.cpu.thread_0.numInsts                100000001                       # Number of Instructions committed
system.cpu.thread_0.numOps                  166019455                       # Number of Ops committed
system.cpu.thread_0.numMemRefs                      0                       # Number of Memory References
system.cpu_clk_domain.clock                       500                       # Clock period in ticks
system.cpu_voltage_domain.voltage                   1                       # Voltage in Volts
system.l2.demand_hits::.cpu.inst                  879                       # number of demand (read+write) hits
system.l2.demand_hits::.cpu.data                37637                       # number of demand (read+write) hits
system.l2.demand_hits::total                    38516                       # number of demand (read+write) hits
system.l2.overall_hits::.cpu.inst                 879                       # number of overall hits
system.l2.overall_hits::.cpu.data               37637                       # number of overall hits
system.l2.overall_hits::total                   38516                       # number of overall hits
system.l2.demand_misses::.cpu.inst               2861                       # number of demand (read+write) misses
system.l2.demand_misses::.cpu.data             384805                       # number of demand (read+write) misses
system.l2.demand_misses::total                 387666                       # number of demand (read+write) misses
system.l2.overall_misses::.cpu.inst              2861                       # number of overall misses
system.l2.overall_misses::.cpu.data            384805                       # number of overall misses
system.l2.overall_misses::total                387666                       # number of overall misses
system.l2.demand_miss_latency::.cpu.inst    209273000                       # number of demand (read+write) miss cycles
system.l2.demand_miss_latency::.cpu.data  27469455000                       # number of demand (read+write) miss cycles
system.l2.demand_miss_latency::total      27678728000                       # number of demand (read+write) miss cycles
system.l2.overall_miss_latency::.cpu.inst    209273000                       # number of overall miss cycles
system.l2.overall_miss_latency::.cpu.data  27469455000                       # number of overall miss cycles
system.l2.overall_miss_latency::total     27678728000                       # number of overall miss cycles
system.l2.demand_accesses::.cpu.inst             3740                       # number of demand (read+write) accesses
[...]
system.mem_ctrls.dram.writeBursts              165739                       # Number of DRAM write bursts
system.mem_ctrls.dram.perBankRdBursts::0        24358                       # Per bank write bursts
system.mem_ctrls.dram.perBankRdBursts::1        24832                       # Per bank write bursts
system.mem_ctrls.dram.perBankRdBursts::2        24568                       # Per bank write bursts
system.mem_ctrls.dram.perBankRdBursts::3        24718                       # Per bank write bursts
system.mem_ctrls.dram.perBankRdBursts::4        24120                       # Per bank write bursts
system.mem_ctrls.dram.perBankRdBursts::5        24144                       # Per bank write bursts
system.mem_ctrls.dram.perBankRdBursts::6        23844                       # Per bank write bursts
system.mem_ctrls.dram.perBankRdBursts::7        24131                       # Per bank write bursts
system.mem_ctrls.dram.perBankRdBursts::8        23972                       # Per bank write bursts
system.mem_ctrls.dram.perBankRdBursts::9        23890                       # Per bank write bursts
system.mem_ctrls.dram.perBankRdBursts::10        23882                       # Per bank write bursts
system.mem_ctrls.dram.perBankRdBursts::11        24067                       # Per bank write bursts
system.mem_ctrls.dram.perBankRdBursts::12        23982                       # Per bank write bursts
system.mem_ctrls.dram.perBankRdBursts::13        24223                       # Per bank write bursts
system.mem_ctrls.dram.perBankRdBursts::14        24604                       # Per bank write bursts
system.mem_ctrls.dram.perBankRdBursts::15        24320                       # Per bank write bursts
system.mem_ctrls.dram.perBankWrBursts::0        10216                       # Per bank write bursts
system.mem_ctrls.dram.perBankWrBursts::1        10510                       # Per bank write bursts
system.mem_ctrls.dram.perBankWrBursts::2        10224                       # Per bank write bursts
system.mem_ctrls.dram.perBankWrBursts::3        10257                       # Per bank write bursts
system.mem_ctrls.dram.perBankWrBursts::4        10133                       # Per bank write bursts
system.mem_ctrls.dram.perBankWrBursts::5        10307                       # Per bank write bursts
system.mem_ctrls.dram.perBankWrBursts::6        10268                       # Per bank write bursts
system.mem_ctrls.dram.perBankWrBursts::7        10422                       # Per bank write bursts
system.mem_ctrls.dram.perBankWrBursts::8        10318                       # Per bank write bursts
system.mem_ctrls.dram.perBankWrBursts::9        10232                       # Per bank write bursts
system.mem_ctrls.dram.perBankWrBursts::10        10327                       # Per bank write bursts
system.mem_ctrls.dram.perBankWrBursts::11        10415                       # Per bank write bursts
system.mem_ctrls.dram.perBankWrBursts::12        10417                       # Per bank write bursts
system.mem_ctrls.dram.perBankWrBursts::13        10680                       # Per bank write bursts
system.mem_ctrls.dram.perBankWrBursts::14        10670                       # Per bank write bursts
system.mem_ctrls.dram.perBankWrBursts::15        10343                       # Per bank write bursts
system.mem_ctrls.dram.totQLat              3653983000                       # Total ticks spent queuing
system.mem_ctrls.dram.totBusLat            1938275000                       # Total ticks spent in databus transfers
system.mem_ctrls.dram.totMemAccLat        10922514250                       # Total ticks spent from burst creation until serviced by the DRAM
system.mem_ctrls.dram.avgQLat                 9425.86                       # Average queueing delay per DRAM burst
system.mem_ctrls.dram.avgBusLat               5000.00                       # Average bus latency per DRAM burst
system.mem_ctrls.dram.avgMemAccLat           28175.86                       # Average memory access latency per DRAM burst
system.mem_ctrls.dram.readRowHits              326454                       # Number of row buffer hits during reads
system.mem_ctrls.dram.writeRowHits             138989                       # Number of row buffer hits during writes
system.mem_ctrls.dram.readRowHitRate            84.21                       # Row buffer hit rate for reads
system.mem_ctrls.dram.writeRowHitRate           83.86                       # Row buffer hit rate for writes
system.mem_ctrls.dram.bytesPerActivate::samples        87946                       # Bytes accessed per row activation
system.mem_ctrls.dram.bytesPerActivate::mean   402.698747                       # Bytes accessed per row activation
system.mem_ctrls.dram.bytesPerActivate::gmean   252.601467                       # Bytes accessed per row activation
system.mem_ctrls.dram.bytesPerActivate::stdev   348.511820                       # Bytes accessed per row activation
system.mem_ctrls.dram.bytesPerActivate::0-127        22580     25.67%     25.67% # Bytes accessed per row activation
system.mem_ctrls.dram.bytesPerActivate::128-255        17612     20.03%     45.70% # Bytes accessed per row activation
system.mem_ctrls.dram.bytesPerActivate::256-383         8924     10.15%     55.85% # Bytes accessed per row activation
system.mem_ctrls.dram.bytesPerActivate::384-511         9062     10.30%     66.15% # Bytes accessed per row activation
system.mem_ctrls.dram.bytesPerActivate::512-639         5382      6.12%     72.27% # Bytes accessed per row activation
system.mem_ctrls.dram.bytesPerActivate::640-767         3620      4.12%     76.39% # Bytes accessed per row activation
system.mem_ctrls.dram.bytesPerActivate::768-895         4879      5.55%     81.94% # Bytes accessed per row activation
system.mem_ctrls.dram.bytesPerActivate::896-1023         3788      4.31%     86.24% # Bytes accessed per row activation
system.mem_ctrls.dram.bytesPerActivate::1024-1151        12099     13.76%    100.00% # Bytes accessed per row activation
system.mem_ctrls.dram.bytesPerActivate::total        87946                       # Bytes accessed per row activation
system.mem_ctrls.dram.bytesRead              24809920                       # Total number of bytes read from DRAM
system.mem_ctrls.dram.bytesWritten           10607296                       # Total number of bytes written to DRAM
system.mem_ctrls.dram.avgRdBW              481.441473                       # Average DRAM read bandwidth in MiBytes/s
system.mem_ctrls.dram.avgWrBW              205.836706                       # Average DRAM write bandwidth in MiBytes/s
system.mem_ctrls.dram.peakBW                 12800.00                       # Theoretical peak bandwidth in MiByte/s
system.mem_ctrls.dram.busUtil                    5.37                       # Data bus utilization in percentage
system.mem_ctrls.dram.busUtilRead                3.76                       # Data bus utilization in percentage for reads
system.mem_ctrls.dram.busUtilWrite               1.61                       # Data bus utilization in percentage for writes
system.mem_ctrls.dram.pageHitRate               84.11                       # Row buffer hit rate, read and write combined
system.mem_ctrls.dram.power_state.pwrStateResidencyTicks::UNDEFINED  51532577500                       # Cumulative time (in ticks) in various power states
system.mem_ctrls.dram.rank0.actEnergy       312924780                       # Energy for activate commands per rank (pJ)
system.mem_ctrls.dram.rank0.preEnergy       166312080                       # Energy for precharge commands per rank (pJ)
system.mem_ctrls.dram.rank0.readEnergy     1390265100                       # Energy for read commands per rank (pJ)
system.mem_ctrls.dram.rank0.writeEnergy     429799140                       # Energy for write commands per rank (pJ)
system.mem_ctrls.dram.rank0.refreshEnergy 4067687520.000000                       # Energy for refresh commands per rank (pJ)
system.mem_ctrls.dram.rank0.actBackEnergy  19161818820                       # Energy for active background per rank (pJ)
system.mem_ctrls.dram.rank0.preBackEnergy   3652241280                       # Energy for precharge background per rank (pJ)
system.mem_ctrls.dram.rank0.actPowerDownEnergy            0                       # Energy for active power-down per rank (pJ)
system.mem_ctrls.dram.rank0.prePowerDownEnergy            0                       # Energy for precharge power-down per rank (pJ)
system.mem_ctrls.dram.rank0.selfRefreshEnergy            0                       # Energy for self refresh per rank (pJ)
system.mem_ctrls.dram.rank0.totalEnergy   29181048720                       # Total energy per rank (pJ)
system.mem_ctrls.dram.rank0.averagePower   566.264102                       # Core power per rank (mW)
system.mem_ctrls.dram.rank0.totalIdleTime            0                       # Total Idle time Per DRAM Rank
system.mem_ctrls.dram.rank0.pwrStateTime::IDLE   9254793250                       # Time in different power states
system.mem_ctrls.dram.rank0.pwrStateTime::REF   1720680000                       # Time in different power states
system.mem_ctrls.dram.rank0.pwrStateTime::SREF            0                       # Time in different power states
system.mem_ctrls.dram.rank0.pwrStateTime::PRE_PDN            0                       # Time in different power states
system.mem_ctrls.dram.rank0.pwrStateTime::ACT  40557104250                       # Time in different power states
system.mem_ctrls.dram.rank0.pwrStateTime::ACT_PDN            0                       # Time in different power states
system.mem_ctrls.dram.rank1.actEnergy       315045360                       # Energy for activate commands per rank (pJ)
system.mem_ctrls.dram.rank1.preEnergy       167442990                       # Energy for precharge commands per rank (pJ)
system.mem_ctrls.dram.rank1.readEnergy     1377591600                       # Energy for read commands per rank (pJ)
system.mem_ctrls.dram.rank1.writeEnergy     435358440                       # Energy for write commands per rank (pJ)
system.mem_ctrls.dram.rank1.refreshEnergy 4067687520.000000                       # Energy for refresh commands per rank (pJ)
system.mem_ctrls.dram.rank1.actBackEnergy  19028251860                       # Energy for active background per rank (pJ)
system.mem_ctrls.dram.rank1.preBackEnergy   3764718720                       # Energy for precharge background per rank (pJ)
system.mem_ctrls.dram.rank1.actPowerDownEnergy            0                       # Energy for active power-down per rank (pJ)
system.mem_ctrls.dram.rank1.prePowerDownEnergy            0                       # Energy for precharge power-down per rank (pJ)
system.mem_ctrls.dram.rank1.selfRefreshEnergy            0                       # Energy for self refresh per rank (pJ)
system.mem_ctrls.dram.rank1.totalEnergy   29156096490                       # Total energy per rank (pJ)
system.mem_ctrls.dram.rank1.averagePower   565.779899                       # Core power per rank (mW)
system.mem_ctrls.dram.rank1.totalIdleTime            0                       # Total Idle time Per DRAM Rank
system.mem_ctrls.dram.rank1.pwrStateTime::IDLE   9541822000                       # Time in different power states
system.mem_ctrls.dram.rank1.pwrStateTime::REF   1720680000                       # Time in different power states
system.mem_ctrls.dram.rank1.pwrStateTime::SREF            0                       # Time in different power states
system.mem_ctrls.dram.rank1.pwrStateTime::PRE_PDN            0                       # Time in different power states
system.mem_ctrls.dram.rank1.pwrStateTime::ACT  40270075500                       # Time in different power states
system.mem_ctrls.dram.rank1.pwrStateTime::ACT_PDN            0                       # Time in different power states
system.mem_ctrls.power_state.pwrStateResidencyTicks::UNDEFINED  51532577500                       # Cumulative time (in ticks) in various power states
system.membus.trans_dist::ReadResp             221961                       # Transaction distribution
system.membus.trans_dist::WritebackDirty       165755                       # Transaction distribution
system.membus.trans_dist::CleanEvict           213198                       # Transaction distribution
system.membus.trans_dist::UpgradeReq                1                       # Transaction distribution
system.membus.trans_dist::ReadExReq            165704                       # Transaction distribution
system.membus.trans_dist::ReadExResp           165704                       # Transaction distribution
system.membus.trans_dist::ReadSharedReq        221961                       # Transaction distribution
system.membus.pkt_count_system.l2.mem_side_port::system.mem_ctrls.port      1154284                       # Packet count per connected requestor and responder (bytes)
system.membus.pkt_count_system.l2.mem_side_port::total      1154284                       # Packet count per connected requestor and responder (bytes)
system.membus.pkt_count::total                1154284                       # Packet count per connected requestor and responder (bytes)
system.membus.pkt_size_system.l2.mem_side_port::system.mem_ctrls.port     35418880                       # Cumulative packet size per connected requestor and responder (bytes)
system.membus.pkt_size_system.l2.mem_side_port::total     35418880                       # Cumulative packet size per connected requestor and responder (bytes)
system.membus.pkt_size::total                35418880                       # Cumulative packet size per connected requestor and responder (bytes)
system.membus.snoops                                0                       # Total snoops (count)
system.membus.snoopTraffic                          0                       # Total snoop traffic (bytes)
system.membus.snoop_fanout::samples            387666                       # Request fanout histogram
system.membus.snoop_fanout::mean                    0                       # Request fanout histogram
system.membus.snoop_fanout::stdev                   0                       # Request fanout histogram
system.membus.snoop_fanout::underflows              0      0.00%      0.00% # Request fanout histogram
system.membus.snoop_fanout::0                  387666    100.00%    100.00% # Request fanout histogram
system.membus.snoop_fanout::1                       0      0.00%    100.00% # Request fanout histogram
system.membus.snoop_fanout::overflows               0      0.00%    100.00% # Request fanout histogram
system.membus.snoop_fanout::min_value               0                       # Request fanout histogram
system.membus.snoop_fanout::max_value               0                       # Request fanout histogram
system.membus.snoop_fanout::total              387666                       # Request fanout histogram
system.membus.power_state.pwrStateResidencyTicks::UNDEFINED  51532577500                       # Cumulative time (in ticks) in various power states
system.membus.reqLayer2.occupancy           357409750                       # Layer occupancy (ticks)
system.membus.reqLayer2.utilization               0.7                       # Layer utilization (%)
system.membus.respLayer1.occupancy          484581250                       # Layer occupancy (ticks)
system.membus.respLayer1.utilization              0.9                       # Layer utilization (%)
system.tol2bus.trans_dist::ReadResp            258354                       # Transaction distribution
system.tol2bus.trans_dist::WritebackDirty       338130                       # Transaction distribution
system.tol2bus.trans_dist::WritebackClean         3229                       # Transaction distribution
system.tol2bus.trans_dist::CleanEvict          463955                       # Transaction distribution
system.tol2bus.trans_dist::UpgradeReq               1                       # Transaction distribution
system.tol2bus.trans_dist::UpgradeResp              1                       # Transaction distribution
system.tol2bus.trans_dist::ReadExReq           167829                       # Transaction distribution
system.tol2bus.trans_dist::ReadExResp          167829                       # Transaction distribution
system.tol2bus.trans_dist::ReadCleanReq          3742                       # Transaction distribution
system.tol2bus.trans_dist::ReadSharedReq       254613                       # Transaction distribution
system.tol2bus.pkt_count_system.cpu.icache.mem_side_port::system.l2.cpu_side_port        10711                       # Packet count per connected requestor and responder (bytes)
system.tol2bus.pkt_count_system.cpu.dcache.mem_side_port::system.l2.cpu_side_port      1266814                       # Packet count per connected requestor and responder (bytes)
system.tol2bus.pkt_count::total               1277525                       # Packet count per connected requestor and responder (bytes)
system.tol2bus.pkt_size_system.cpu.icache.mem_side_port::system.l2.cpu_side_port       446016                       # Cumulative packet size per connected requestor and responder (bytes)
system.tol2bus.pkt_size_system.cpu.dcache.mem_side_port::system.l2.cpu_side_port     38068224                       # Cumulative packet size per connected requestor and responder (bytes)
system.tol2bus.pkt_size::total               38514240                       # Cumulative packet size per connected requestor and responder (bytes)
system.tol2bus.snoops                          380158                       # Total snoops (count)
system.tol2bus.snoopTraffic                  10608448                       # Total snoop traffic (bytes)
system.tol2bus.snoop_fanout::samples           806341                       # Request fanout histogram
system.tol2bus.snoop_fanout::mean            0.001553                       # Request fanout histogram
system.tol2bus.snoop_fanout::stdev           0.039374                       # Request fanout histogram
system.tol2bus.snoop_fanout::underflows             0      0.00%      0.00% # Request fanout histogram
system.tol2bus.snoop_fanout::0                 805089     99.84%     99.84% # Request fanout histogram
system.tol2bus.snoop_fanout::1                   1252      0.16%    100.00% # Request fanout histogram
system.tol2bus.snoop_fanout::2                      0      0.00%    100.00% # Request fanout histogram
system.tol2bus.snoop_fanout::3                      0      0.00%    100.00% # Request fanout histogram
system.tol2bus.snoop_fanout::4                      0      0.00%    100.00% # Request fanout histogram
system.tol2bus.snoop_fanout::overflows              0      0.00%    100.00% # Request fanout histogram
system.tol2bus.snoop_fanout::min_value              0                       # Request fanout histogram
system.tol2bus.snoop_fanout::max_value              1                       # Request fanout histogram
system.tol2bus.snoop_fanout::total             806341                       # Request fanout histogram
system.tol2bus.power_state.pwrStateResidencyTicks::UNDEFINED  51532577500                       # Cumulative time (in ticks) in various power states
system.tol2bus.reqLayer0.occupancy          601275500                       # Layer occupancy (ticks)
system.tol2bus.reqLayer0.utilization              1.2                       # Layer utilization (%)
system.tol2bus.respLayer0.occupancy           5613998                       # Layer occupancy (ticks)
system.tol2bus.respLayer0.utilization             0.0                       # Layer utilization (%)
system.tol2bus.respLayer1.occupancy         633663497                       # Layer occupancy (ticks)
system.tol2bus.respLayer1.utilization             1.2                       # Layer utilization (%)
system.voltage_domain.voltage                       1                       # Voltage in Volts

---------- End Simulation Statistics   ----------
