
---------- Begin Simulation Statistics ----------
final_tick                                 5466209500                       # Number of ticks from beginning of simulation (restored from checkpoints and never reset)
host_inst_rate                                  56908                       # Simulator instruction rate (inst/s)
host_mem_usage                                 676472                       # Number of bytes of host memory used
host_op_rate                                   107255                       # Simulator op (including micro ops) rate (op/s)
host_seconds                                   175.72                       # Real time elapsed on the host
host_tick_rate                               31107100                       # Simulator tick rate (ticks/s)
sim_freq                                 1000000000000                       # Frequency of simulated ticks
sim_insts                                    10000001                       # Number of instructions simulated
sim_ops                                      18847133                       # Number of ops (including micro ops) simulated
sim_seconds                                  0.005466                       # Number of seconds simulated
sim_ticks                                  5466209500                       # Number of ticks simulated
system.cpu.cc_regfile_reads                  12241653                       # number of cc regfile reads
system.cpu.cc_regfile_writes                  5900831                       # number of cc regfile writes
system.cpu.committedInsts                    10000001                       # Number of Instructions Simulated
system.cpu.committedOps                      18847133                       # Number of Ops (including micro ops) Simulated
system.cpu.cpi                               1.093242                       # CPI: Cycles Per Instruction
system.cpu.cpi_total                         1.093242                       # CPI: Total CPI of All Threads
system.cpu.fp_regfile_reads                    529744                       # number of floating regfile reads
system.cpu.fp_regfile_writes                   291025                       # number of floating regfile writes
system.cpu.idleCycles                           86070                       # Total number of cycles that the CPU has spent unscheduled due to idling
system.cpu.iew.branchMispredicts                86174                       # Number of branch mispredicts detected at execute
system.cpu.iew.exec_branches                  2209260                       # Number of branches executed
system.cpu.iew.exec_nop                             0                       # number of nop insts executed
system.cpu.iew.exec_rate                     1.831609                       # Inst execution rate
system.cpu.iew.exec_refs                      4065193                       # number of memory reference insts executed
system.cpu.iew.exec_stores                    1667960                       # Number of stores executed
system.cpu.iew.exec_swp                             0                       # number of swp insts executed
system.cpu.iew.iewBlockCycles                  891736                       # Number of cycles IEW is blocking
system.cpu.iew.iewDispLoadInsts               2433244                       # Number of dispatched load instructions
system.cpu.iew.iewDispNonSpecInsts                 59                       # Number of dispatched non-speculative instructions
system.cpu.iew.iewDispSquashedInsts              1570                       # Number of squashed instructions skipped by dispatch
system.cpu.iew.iewDispStoreInsts              1697544                       # Number of dispatched store instructions
system.cpu.iew.iewDispatchedInsts            20583491                       # Number of instructions dispatched to IQ
system.cpu.iew.iewExecLoadInsts               2397233                       # Number of load instructions executed
system.cpu.iew.iewExecSquashedInsts            168590                       # Number of squashed instructions skipped in execute
system.cpu.iew.iewExecutedInsts              20023923                       # Number of executed instructions
system.cpu.iew.iewIQFullEvents                   7018                       # Number of times the IQ has become full, causing a stall
system.cpu.iew.iewIdleCycles                        0                       # Number of cycles IEW is idle
system.cpu.iew.iewLSQFullEvents                709438                       # Number of times the LSQ has become full, causing a stall
system.cpu.iew.iewSquashCycles                  67790                       # Number of cycles IEW is squashing
system.cpu.iew.iewUnblockCycles                723463                       # Number of cycles IEW is unblocking
system.cpu.iew.memOrderViolationEvents            187                       # Number of memory order violations
system.cpu.iew.predictedNotTakenIncorrect        63207                       # Number of branches that were predicted not taken incorrectly
system.cpu.iew.predictedTakenIncorrect          22967                       # Number of branches that were predicted taken incorrectly
system.cpu.iew.wb_consumers                  22699190                       # num instructions consuming a value
system.cpu.iew.wb_count                      19967282                       # cumulative count of insts written-back
system.cpu.iew.wb_fanout                     0.608642                       # average fanout of values written-back
system.cpu.iew.wb_producers                  13815674                       # num instructions producing a value
system.cpu.iew.wb_rate                       1.826428                       # insts written-back per cycle
system.cpu.iew.wb_sent                       19991161                       # cumulative count of insts sent to commit
system.cpu.int_regfile_reads                 31114991                       # number of integer regfile reads
system.cpu.int_regfile_writes                15976096                       # number of integer regfile writes
system.cpu.ipc                               0.914711                       # IPC: Instructions Per Cycle
system.cpu.ipc_total                         0.914711                       # IPC: Total IPC of All Threads
system.cpu.iq.FU_type_0::No_OpClass            192917      0.96%      0.96% # Type of FU issued
system.cpu.iq.FU_type_0::IntAlu              15467802     76.60%     77.56% # Type of FU issued
system.cpu.iq.FU_type_0::IntMult                85449      0.42%     77.98% # Type of FU issued
system.cpu.iq.FU_type_0::IntDiv                116744      0.58%     78.56% # Type of FU issued
system.cpu.iq.FU_type_0::FloatAdd               42655      0.21%     78.77% # Type of FU issued
system.cpu.iq.FU_type_0::FloatCmp                   0      0.00%     78.77% # Type of FU issued
system.cpu.iq.FU_type_0::FloatCvt                  32      0.00%     78.77% # Type of FU issued
system.cpu.iq.FU_type_0::FloatMult                  0      0.00%     78.77% # Type of FU issued
system.cpu.iq.FU_type_0::FloatMultAcc               0      0.00%     78.77% # Type of FU issued
system.cpu.iq.FU_type_0::FloatDiv                   0      0.00%     78.77% # Type of FU issued
system.cpu.iq.FU_type_0::FloatMisc                  0      0.00%     78.77% # Type of FU issued
system.cpu.iq.FU_type_0::FloatSqrt                  0      0.00%     78.77% # Type of FU issued
system.cpu.iq.FU_type_0::SimdAdd                  452      0.00%     78.77% # Type of FU issued
system.cpu.iq.FU_type_0::SimdAddAcc                 0      0.00%     78.77% # Type of FU issued
system.cpu.iq.FU_type_0::SimdAlu                22202      0.11%     78.88% # Type of FU issued
system.cpu.iq.FU_type_0::SimdCmp                   20      0.00%     78.88% # Type of FU issued
system.cpu.iq.FU_type_0::SimdCvt                33797      0.17%     79.05% # Type of FU issued
system.cpu.iq.FU_type_0::SimdMisc              121822      0.60%     79.65% # Type of FU issued
system.cpu.iq.FU_type_0::SimdMult                   0      0.00%     79.65% # Type of FU issued
system.cpu.iq.FU_type_0::SimdMultAcc                0      0.00%     79.65% # Type of FU issued
system.cpu.iq.FU_type_0::SimdShift                265      0.00%     79.65% # Type of FU issued
system.cpu.iq.FU_type_0::SimdShiftAcc               0      0.00%     79.65% # Type of FU issued
system.cpu.iq.FU_type_0::SimdDiv                    0      0.00%     79.65% # Type of FU issued
system.cpu.iq.FU_type_0::SimdSqrt                   0      0.00%     79.65% # Type of FU issued
system.cpu.iq.FU_type_0::SimdFloatAdd               0      0.00%     79.65% # Type of FU issued
system.cpu.iq.FU_type_0::SimdFloatAlu               0      0.00%     79.65% # Type of FU issued
system.cpu.iq.FU_type_0::SimdFloatCmp               0      0.00%     79.65% # Type of FU issued
system.cpu.iq.FU_type_0::SimdFloatCvt               4      0.00%     79.65% # Type of FU issued
system.cpu.iq.FU_type_0::SimdFloatDiv               0      0.00%     79.65% # Type of FU issued
system.cpu.iq.FU_type_0::SimdFloatMisc              0      0.00%     79.65% # Type of FU issued
system.cpu.iq.FU_type_0::SimdFloatMult              2      0.00%     79.65% # Type of FU issued
system.cpu.iq.FU_type_0::SimdFloatMultAcc            0      0.00%     79.65% # Type of FU issued
system.cpu.iq.FU_type_0::SimdFloatSqrt              0      0.00%     79.65% # Type of FU issued
system.cpu.iq.FU_type_0::SimdReduceAdd              0      0.00%     79.65% # Type of FU issued
system.cpu.iq.FU_type_0::SimdReduceAlu              0      0.00%     79.65% # Type of FU issued
system.cpu.iq.FU_type_0::SimdReduceCmp              0      0.00%     79.65% # Type of FU issued
system.cpu.iq.FU_type_0::SimdFloatReduceAdd            0      0.00%     79.65% # Type of FU issued
system.cpu.iq.FU_type_0::SimdFloatReduceCmp            0      0.00%     79.65% # Type of FU issued
system.cpu.iq.FU_type_0::SimdAes                    0      0.00%     79.65% # Type of FU issued
system.cpu.iq.FU_type_0::SimdAesMix                 0      0.00%     79.65% # Type of FU issued
system.cpu.iq.FU_type_0::SimdSha1Hash               0      0.00%     79.65% # Type of FU issued
system.cpu.iq.FU_type_0::SimdSha1Hash2              0      0.00%     79.65% # Type of FU issued
system.cpu.iq.FU_type_0::SimdSha256Hash             0      0.00%     79.65% # Type of FU issued
system.cpu.iq.FU_type_0::SimdSha256Hash2            0      0.00%     79.65% # Type of FU issued
system.cpu.iq.FU_type_0::SimdShaSigma2              0      0.00%     79.65% # Type of FU issued
system.cpu.iq.FU_type_0::SimdShaSigma3              0      0.00%     79.65% # Type of FU issued
system.cpu.iq.FU_type_0::SimdPredAlu                0      0.00%     79.65% # Type of FU issued
system.cpu.iq.FU_type_0::MemRead              2339406     11.59%     91.24% # Type of FU issued
system.cpu.iq.FU_type_0::MemWrite             1531458      7.58%     98.82% # Type of FU issued
system.cpu.iq.FU_type_0::FloatMemRead           88541      0.44%     99.26% # Type of FU issued
system.cpu.iq.FU_type_0::FloatMemWrite         148946      0.74%    100.00% # Type of FU issued
system.cpu.iq.FU_type_0::IprAccess                  0      0.00%    100.00% # Type of FU issued
system.cpu.iq.FU_type_0::InstPrefetch               0      0.00%    100.00% # Type of FU issued
system.cpu.iq.FU_type_0::total               20192514                       # Type of FU issued
system.cpu.iq.fp_alu_accesses                  496928                       # Number of floating point alu accesses
system.cpu.iq.fp_inst_queue_reads              982599                       # Number of floating instruction queue reads
system.cpu.iq.fp_inst_queue_wakeup_accesses       470218                       # Number of floating instruction queue wakeup accesses
system.cpu.iq.fp_inst_queue_writes             558749                       # Number of floating instruction queue writes
system.cpu.iq.fu_busy_cnt                      341885                       # FU busy when requested
system.cpu.iq.fu_busy_rate                   0.016931                       # FU busy rate (busy events/executed inst)
system.cpu.iq.fu_full::No_OpClass                   0      0.00%      0.00% # attempts to use FU when none available
system.cpu.iq.fu_full::IntAlu                  281011     82.19%     82.19% # attempts to use FU when none available
system.cpu.iq.fu_full::IntMult                      0      0.00%     82.19% # attempts to use FU when none available
system.cpu.iq.fu_full::IntDiv                       0      0.00%     82.19% # attempts to use FU when none available
system.cpu.iq.fu_full::FloatAdd                     0      0.00%     82.19% # attempts to use FU when none available
system.cpu.iq.fu_full::FloatCmp                     0      0.00%     82.19% # attempts to use FU when none available
system.cpu.iq.fu_full::FloatCvt                     0      0.00%     82.19% # attempts to use FU when none available
system.cpu.iq.fu_full::FloatMult                    0      0.00%     82.19% # attempts to use FU when none available
system.cpu.iq.fu_full::FloatMultAcc                 0      0.00%     82.19% # attempts to use FU when none available
system.cpu.iq.fu_full::FloatDiv                     0      0.00%     82.19% # attempts to use FU when none available
system.cpu.iq.fu_full::FloatMisc                    0      0.00%     82.19% # attempts to use FU when none available
system.cpu.iq.fu_full::FloatSqrt                    0      0.00%     82.19% # attempts to use FU when none available
system.cpu.iq.fu_full::SimdAdd                      0      0.00%     82.19% # attempts to use FU when none available
system.cpu.iq.fu_full::SimdAddAcc                   0      0.00%     82.19% # attempts to use FU when none available
system.cpu.iq.fu_full::SimdAlu                     14      0.00%     82.20% # attempts to use FU when none available
system.cpu.iq.fu_full::SimdCmp                      2      0.00%     82.20% # attempts to use FU when none available
system.cpu.iq.fu_full::SimdCvt                    501      0.15%     82.35% # attempts to use FU when none available
system.cpu.iq.fu_full::SimdMisc                   244      0.07%     82.42% # attempts to use FU when none available
system.cpu.iq.fu_full::SimdMult                     0      0.00%     82.42% # attempts to use FU when none available
system.cpu.iq.fu_full::SimdMultAcc                  0      0.00%     82.42% # attempts to use FU when none available
system.cpu.iq.fu_full::SimdShift                    1      0.00%     82.42% # attempts to use FU when none available
system.cpu.iq.fu_full::SimdShiftAcc                 0      0.00%     82.42% # attempts to use FU when none available
system.cpu.iq.fu_full::SimdDiv                      0      0.00%     82.42% # attempts to use FU when none available
system.cpu.iq.fu_full::SimdSqrt                     0      0.00%     82.42% # attempts to use FU when none available
system.cpu.iq.fu_full::SimdFloatAdd                 0      0.00%     82.42% # attempts to use FU when none available
system.cpu.iq.fu_full::SimdFloatAlu                 0      0.00%     82.42% # attempts to use FU when none available
system.cpu.iq.fu_full::SimdFloatCmp                 0      0.00%     82.42% # attempts to use FU when none available
system.cpu.iq.fu_full::SimdFloatCvt                 0      0.00%     82.42% # attempts to use FU when none available
system.cpu.iq.fu_full::SimdFloatDiv                 0      0.00%     82.42% # attempts to use FU when none available
system.cpu.iq.fu_full::SimdFloatMisc                0      0.00%     82.42% # attempts to use FU when none available
system.cpu.iq.fu_full::SimdFloatMult                0      0.00%     82.42% # attempts to use FU when none available
system.cpu.iq.fu_full::SimdFloatMultAcc             0      0.00%     82.42% # attempts to use FU when none available
system.cpu.iq.fu_full::SimdFloatSqrt                0      0.00%     82.42% # attempts to use FU when none available
system.cpu.iq.fu_full::SimdReduceAdd                0      0.00%     82.42% # attempts to use FU when none available
system.cpu.iq.fu_full::SimdReduceAlu                0      0.00%     82.42% # attempts to use FU when none available
system.cpu.iq.fu_full::SimdReduceCmp                0      0.00%     82.42% # attempts to use FU when none available
system.cpu.iq.fu_full::SimdFloatReduceAdd            0      0.00%     82.42% # attempts to use FU when none available
system.cpu.iq.fu_full::SimdFloatReduceCmp            0      0.00%     82.42% # attempts to use FU when none available
system.cpu.iq.fu_full::SimdAes                      0      0.00%     82.42% # attempts to use FU when none available
system.cpu.iq.fu_full::SimdAesMix                   0      0.00%     82.42% # attempts to use FU when none available
system.cpu.iq.fu_full::SimdSha1Hash                 0      0.00%     82.42% # attempts to use FU when none available
system.cpu.iq.fu_full::SimdSha1Hash2                0      0.00%     82.42% # attempts to use FU when none available
system.cpu.iq.fu_full::SimdSha256Hash               0      0.00%     82.42% # attempts to use FU when none available
system.cpu.iq.fu_full::SimdSha256Hash2              0      0.00%     82.42% # attempts to use FU when none available
system.cpu.iq.fu_full::SimdShaSigma2                0      0.00%     82.42% # attempts to use FU when none available
system.cpu.iq.fu_full::SimdShaSigma3                0      0.00%     82.42% # attempts to use FU when none available
system.cpu.iq.fu_full::SimdPredAlu                  0      0.00%     82.42% # attempts to use FU when none available
system.cpu.iq.fu_full::MemRead                  33347      9.75%     92.17% # attempts to use FU when none available
system.cpu.iq.fu_full::MemWrite                 16019      4.69%     96.86% # attempts to use FU when none available
system.cpu.iq.fu_full::FloatMemRead               300      0.09%     96.94% # attempts to use FU when none available
system.cpu.iq.fu_full::FloatMemWrite            10446      3.06%    100.00% # attempts to use FU when none available
system.cpu.iq.fu_full::IprAccess                    0      0.00%    100.00% # attempts to use FU when none available
system.cpu.iq.fu_full::InstPrefetch                 0      0.00%    100.00% # attempts to use FU when none available
system.cpu.iq.int_alu_accesses               19844554                       # Number of integer alu accesses
system.cpu.iq.int_inst_queue_reads           50597868                       # Number of integer instruction queue reads
system.cpu.iq.int_inst_queue_wakeup_accesses     19497064                       # Number of integer instruction queue wakeup accesses
system.cpu.iq.int_inst_queue_writes          21761270                       # Number of integer instruction queue writes
system.cpu.iq.iqInstsAdded                   20583354                       # Number of instructions added to the IQ (excludes non-spec)
system.cpu.iq.iqInstsIssued                  20192514                       # Number of instructions issued
system.cpu.iq.iqNonSpecInstsAdded                 137                       # Number of non-speculative instructions added to the IQ
system.cpu.iq.iqSquashedInstsExamined         1736346                       # Number of squashed instructions iterated over during squash; mainly for profiling
system.cpu.iq.iqSquashedInstsIssued              7205                       # Number of squashed instructions issued
system.cpu.iq.iqSquashedNonSpecRemoved             71                       # Number of squashed non-spec instructions that were removed
system.cpu.iq.iqSquashedOperandsExamined      2036426                       # Number of squashed operands that are examined and possibly removed from graph
system.cpu.iq.issued_per_cycle::samples      10846350                       # Number of insts issued each cycle
system.cpu.iq.issued_per_cycle::mean         1.861687                       # Number of insts issued each cycle
system.cpu.iq.issued_per_cycle::stdev        2.364894                       # Number of insts issued each cycle
system.cpu.iq.issued_per_cycle::underflows            0      0.00%      0.00% # Number of insts issued each cycle
system.cpu.iq.issued_per_cycle::0             5552199     51.19%     51.19% # Number of insts issued each cycle
system.cpu.iq.issued_per_cycle::1              752930      6.94%     58.13% # Number of insts issued each cycle
system.cpu.iq.issued_per_cycle::2              885357      8.16%     66.29% # Number of insts issued each cycle
system.cpu.iq.issued_per_cycle::3              943741      8.70%     75.00% # Number of insts issued each cycle
system.cpu.iq.issued_per_cycle::4              801129      7.39%     82.38% # Number of insts issued each cycle
system.cpu.iq.issued_per_cycle::5              616579      5.68%     88.07% # Number of insts issued each cycle
system.cpu.iq.issued_per_cycle::6              732949      6.76%     94.82% # Number of insts issued each cycle
system.cpu.iq.issued_per_cycle::7              339186      3.13%     97.95% # Number of insts issued each cycle
system.cpu.iq.issued_per_cycle::8              222280      2.05%    100.00% # Number of insts issued each cycle
system.cpu.iq.issued_per_cycle::overflows            0      0.00%    100.00% # Number of insts issued each cycle
system.cpu.iq.issued_per_cycle::min_value            0                       # Number of insts issued each cycle
system.cpu.iq.issued_per_cycle::max_value            8                       # Number of insts issued each cycle
system.cpu.iq.issued_per_cycle::total        10846350                       # Number of insts issued each cycle
system.cpu.iq.rate                           1.847031                       # Inst issue rate
system.cpu.iq.vec_alu_accesses                      0                       # Number of vector alu accesses
system.cpu.iq.vec_inst_queue_reads                  0                       # Number of vector instruction queue reads
system.cpu.iq.vec_inst_queue_wakeup_accesses            0                       # Number of vector instruction queue wakeup accesses
system.cpu.iq.vec_inst_queue_writes                 0                       # Number of vector instruction queue writes
system.cpu.memDep0.conflictingLoads             73255                       # Number of conflicting loads.
system.cpu.memDep0.conflictingStores            16982                       # Number of conflicting stores.
system.cpu.memDep0.insertedLoads              2433244                       # Number of loads inserted to the mem dependence unit.
system.cpu.memDep0.insertedStores             1697544                       # Number of stores inserted to the mem dependence unit.
system.cpu.misc_regfile_reads                 8456657                       # number of misc regfile reads
system.cpu.misc_regfile_writes                     18                       # number of misc regfile writes
system.cpu.numCycles                         10932420                       # number of cpu cycles simulated
system.cpu.numWorkItemsCompleted                    0                       # number of work items this cpu completed
system.cpu.numWorkItemsStarted                      0                       # number of work items this cpu started
system.cpu.timesIdled                             894                       # Number of times that the entire CPU went into an idle state and unscheduled itself
system.cpu.workload.numSyscalls                    54                       # Number of system calls
system.membus.snoop_filter.hit_multi_requests            0                       # Number of requests hitting in the snoop filter with multiple (>1) holders of the requested data.
system.membus.snoop_filter.hit_multi_snoops            0                       # Number of snoops hitting in the snoop filter with multiple (>1) holders of the requested data.
system.membus.snoop_filter.hit_single_requests        30253                       # Number of requests hitting in the snoop filter with a single holder of the requested data.
system.membus.snoop_filter.hit_single_snoops            0                       # Number of snoops hitting in the snoop filter with a single holder of the requested data.
system.membus.snoop_filter.tot_requests         69225                       # Total number of requests made to the snoop filter.
system.membus.snoop_filter.tot_snoops               0                       # Total number of snoops made to the snoop filter.
system.tol2bus.snoop_filter.hit_multi_requests           13                       # Number of requests hitting in the snoop filter with multiple (>1) holders of the requested data.
system.tol2bus.snoop_filter.hit_multi_snoops            4                       # Number of snoops hitting in the snoop filter with multiple (>1) holders of the requested data.
system.tol2bus.snoop_filter.hit_single_requests        60805                       # Number of requests hitting in the snoop filter with a single holder of the requested data.
system.tol2bus.snoop_filter.hit_single_snoops          572                       # Number of snoops hitting in the snoop filter with a single holder of the requested data.
system.tol2bus.snoop_filter.tot_requests       122629                       # Total number of requests made to the snoop filter.
system.tol2bus.snoop_filter.tot_snoops            576                       # Total number of snoops made to the snoop filter.
system.clk_domain.clock                           250                       # Clock period in ticks
system.cpu.branchPred.lookups                 2458536                       # Number of BP lookups
system.cpu.branchPred.condPredicted           2017366                       # Number of conditional branches predicted
system.cpu.branchPred.condIncorrect             77746                       # Number of conditional branches incorrect
system.cpu.branchPred.BTBLookups               988764                       # Number of BTB lookups
system.cpu.branchPred.BTBHits                  927712                       # Number of BTB hits
system.cpu.branchPred.BTBHitPct             93.825422                       # BTB Hit Percentage
system.cpu.branchPred.RASUsed                  121330                       # Number of times the RAS was used to get a target.
system.cpu.branchPred.RASIncorrect                  6                       # Number of incorrect RAS predictions.
system.cpu.branchPred.indirectLookups           52132                       # Number of indirect predictor lookups.
system.cpu.branchPred.indirectHits              49480                       # Number of indirect target hits.
system.cpu.branchPred.indirectMisses             2652                       # Number of indirect misses.
system.cpu.branchPred.indirectMispredicted          377                       # Number of mispredicted indirect branches.
system.cpu.commit.commitSquashedInsts         1727821                       # The number of squashed insts skipped by commit
system.cpu.commit.commitNonSpecStalls              66                       # The number of times commit has been forced to stall to communicate backwards
system.cpu.commit.branchMispredicts             66859                       # The number of times a branch was mispredicted
system.cpu.commit.numCommittedDist::samples     10581717                       # Number of insts commited each cycle
system.cpu.commit.numCommittedDist::mean     1.781103                       # Number of insts commited each cycle
system.cpu.commit.numCommittedDist::stdev     2.652512                       # Number of insts commited each cycle
system.cpu.commit.numCommittedDist::underflows            0      0.00%      0.00% # Number of insts commited each cycle
system.cpu.commit.numCommittedDist::0         5935801     56.09%     56.09% # Number of insts commited each cycle
system.cpu.commit.numCommittedDist::1         1068688     10.10%     66.19% # Number of insts commited each cycle
system.cpu.commit.numCommittedDist::2          519598      4.91%     71.10% # Number of insts commited each cycle
system.cpu.commit.numCommittedDist::3          945798      8.94%     80.04% # Number of insts commited each cycle
system.cpu.commit.numCommittedDist::4          283484      2.68%     82.72% # Number of insts commited each cycle
system.cpu.commit.numCommittedDist::5          341132      3.22%     85.95% # Number of insts commited each cycle
system.cpu.commit.numCommittedDist::6          323316      3.06%     89.00% # Number of insts commited each cycle
system.cpu.commit.numCommittedDist::7          188837      1.78%     90.79% # Number of insts commited each cycle
system.cpu.commit.numCommittedDist::8          975063      9.21%    100.00% # Number of insts commited each cycle
system.cpu.commit.numCommittedDist::overflows            0      0.00%    100.00% # Number of insts commited each cycle
system.cpu.commit.numCommittedDist::min_value            0                       # Number of insts commited each cycle
system.cpu.commit.numCommittedDist::max_value            8                       # Number of insts commited each cycle
system.cpu.commit.numCommittedDist::total     10581717                       # Number of insts commited each cycle
system.cpu.commit.instsCommitted             10000001                       # Number of instructions committed
system.cpu.commit.opsCommitted               18847133                       # Number of ops (including micro ops) committed
system.cpu.commit.memRefs                     3855806                       # Number of memory references committed
system.cpu.commit.loads                       2239682                       # Number of loads committed
system.cpu.commit.amos                              0                       # Number of atomic instructions committed
system.cpu.commit.membars                          32                       # Number of memory barriers committed
system.cpu.commit.branches                    2096089                       # Number of branches committed
system.cpu.commit.vector                            0                       # Number of committed Vector instructions.
system.cpu.commit.floating                     432909                       # Number of committed floating point instructions.
system.cpu.commit.integer                    18491276                       # Number of committed integer instructions.
system.cpu.commit.functionCalls                105987                       # Number of function calls committed.
system.cpu.commit.committedInstType_0::No_OpClass       186599      0.99%      0.99% # Class of committed instruction
system.cpu.commit.committedInstType_0::IntAlu     14415807     76.49%     77.48% # Class of committed instruction
system.cpu.commit.committedInstType_0::IntMult        83587      0.44%     77.92% # Class of committed instruction
system.cpu.commit.committedInstType_0::IntDiv       113626      0.60%     78.52% # Class of committed instruction
system.cpu.commit.committedInstType_0::FloatAdd        42444      0.23%     78.75% # Class of committed instruction
system.cpu.commit.committedInstType_0::FloatCmp            0      0.00%     78.75% # Class of committed instruction
system.cpu.commit.committedInstType_0::FloatCvt           32      0.00%     78.75% # Class of committed instruction
system.cpu.commit.committedInstType_0::FloatMult            0      0.00%     78.75% # Class of committed instruction
system.cpu.commit.committedInstType_0::FloatMultAcc            0      0.00%     78.75% # Class of committed instruction
system.cpu.commit.committedInstType_0::FloatDiv            0      0.00%     78.75% # Class of committed instruction
system.cpu.commit.committedInstType_0::FloatMisc            0      0.00%     78.75% # Class of committed instruction
system.cpu.commit.committedInstType_0::FloatSqrt            0      0.00%     78.75% # Class of committed instruction
system.cpu.commit.committedInstType_0::SimdAdd          398      0.00%     78.75% # Class of committed instruction
system.cpu.commit.committedInstType_0::SimdAddAcc            0      0.00%     78.75% # Class of committed instruction
system.cpu.commit.committedInstType_0::SimdAlu        11366      0.06%     78.81% # Class of committed instruction
system.cpu.commit.committedInstType_0::SimdCmp           20      0.00%     78.81% # Class of committed instruction
system.cpu.commit.committedInstType_0::SimdCvt        23970      0.13%     78.94% # Class of committed instruction
system.cpu.commit.committedInstType_0::SimdMisc       113367      0.60%     79.54% # Class of committed instruction
system.cpu.commit.committedInstType_0::SimdMult            0      0.00%     79.54% # Class of committed instruction
system.cpu.commit.committedInstType_0::SimdMultAcc            0      0.00%     79.54% # Class of committed instruction
system.cpu.commit.committedInstType_0::SimdShift          105      0.00%     79.54% # Class of committed instruction
system.cpu.commit.committedInstType_0::SimdShiftAcc            0      0.00%     79.54% # Class of committed instruction
system.cpu.commit.committedInstType_0::SimdDiv            0      0.00%     79.54% # Class of committed instruction
system.cpu.commit.committedInstType_0::SimdSqrt            0      0.00%     79.54% # Class of committed instruction
system.cpu.commit.committedInstType_0::SimdFloatAdd            0      0.00%     79.54% # Class of committed instruction
system.cpu.commit.committedInstType_0::SimdFloatAlu            0      0.00%     79.54% # Class of committed instruction
system.cpu.commit.committedInstType_0::SimdFloatCmp            0      0.00%     79.54% # Class of committed instruction
system.cpu.commit.committedInstType_0::SimdFloatCvt            4      0.00%     79.54% # Class of committed instruction
system.cpu.commit.committedInstType_0::SimdFloatDiv            0      0.00%     79.54% # Class of committed instruction
system.cpu.commit.committedInstType_0::SimdFloatMisc            0      0.00%     79.54% # Class of committed instruction
system.cpu.commit.committedInstType_0::SimdFloatMult            2      0.00%     79.54% # Class of committed instruction
system.cpu.commit.committedInstType_0::SimdFloatMultAcc            0      0.00%     79.54% # Class of committed instruction
system.cpu.commit.committedInstType_0::SimdFloatSqrt            0      0.00%     79.54% # Class of committed instruction
system.cpu.commit.committedInstType_0::SimdReduceAdd            0      0.00%     79.54% # Class of committed instruction
system.cpu.commit.committedInstType_0::SimdReduceAlu            0      0.00%     79.54% # Class of committed instruction
system.cpu.commit.committedInstType_0::SimdReduceCmp            0      0.00%     79.54% # Class of committed instruction
system.cpu.commit.committedInstType_0::SimdFloatReduceAdd            0      0.00%     79.54% # Class of committed instruction
system.cpu.commit.committedInstType_0::SimdFloatReduceCmp            0      0.00%     79.54% # Class of committed instruction
system.cpu.commit.committedInstType_0::SimdAes            0      0.00%     79.54% # Class of committed instruction
system.cpu.commit.committedInstType_0::SimdAesMix            0      0.00%     79.54% # Class of committed instruction
system.cpu.commit.committedInstType_0::SimdSha1Hash            0      0.00%     79.54% # Class of committed instruction
system.cpu.commit.committedInstType_0::SimdSha1Hash2            0      0.00%     79.54% # Class of committed instruction
system.cpu.commit.committedInstType_0::SimdSha256Hash            0      0.00%     79.54% # Class of committed instruction
system.cpu.commit.committedInstType_0::SimdSha256Hash2            0      0.00%     79.54% # Class of committed instruction
system.cpu.commit.committedInstType_0::SimdShaSigma2            0      0.00%     79.54% # Class of committed instruction
system.cpu.commit.committedInstType_0::SimdShaSigma3            0      0.00%     79.54% # Class of committed instruction
system.cpu.commit.committedInstType_0::SimdPredAlu            0      0.00%     79.54% # Class of committed instruction
system.cpu.commit.committedInstType_0::MemRead      2173523     11.53%     91.07% # Class of committed instruction
system.cpu.commit.committedInstType_0::MemWrite      1467717      7.79%     98.86% # Class of committed instruction
system.cpu.commit.committedInstType_0::FloatMemRead        66159      0.35%     99.21% # Class of committed instruction
system.cpu.commit.committedInstType_0::FloatMemWrite       148407      0.79%    100.00% # Class of committed instruction
system.cpu.commit.committedInstType_0::IprAccess            0      0.00%    100.00% # Class of committed instruction
system.cpu.commit.committedInstType_0::InstPrefetch            0      0.00%    100.00% # Class of committed instruction
system.cpu.commit.committedInstType_0::total     18847133                       # Class of committed instruction
system.cpu.commit.commitEligibleSamples        975063                       # number cycles where commit BW limit reached
system.cpu.dcache.demand_hits::.cpu.data      3477714                       # number of demand (read+write) hits
system.cpu.dcache.demand_hits::total          3477714                       # number of demand (read+write) hits
system.cpu.dcache.overall_hits::.cpu.data      3477714                       # number of overall hits
system.cpu.dcache.overall_hits::total         3477714                       # number of overall hits
system.cpu.dcache.demand_misses::.cpu.data        69990                       # number of demand (read+write) misses
system.cpu.dcache.demand_misses::total          69990                       # number of demand (read+write) misses
system.cpu.dcache.overall_misses::.cpu.data        69990                       # number of overall misses
system.cpu.dcache.overall_misses::total         69990                       # number of overall misses
system.cpu.dcache.demand_miss_latency::.cpu.data   4440658499                       # number of demand (read+write) miss cycles
system.cpu.dcache.demand_miss_latency::total   4440658499                       # number of demand (read+write) miss cycles
system.cpu.dcache.overall_miss_latency::.cpu.data   4440658499                       # number of overall miss cycles
system.cpu.dcache.overall_miss_latency::total   4440658499                       # number of overall miss cycles
system.cpu.dcache.demand_accesses::.cpu.data      3547704                       # number of demand (read+write) accesses
system.cpu.dcache.demand_accesses::total      3547704                       # number of demand (read+write) accesses
system.cpu.dcache.overall_accesses::.cpu.data      3547704                       # number of overall (read+write) accesses
system.cpu.dcache.overall_accesses::total      3547704                       # number of overall (read+write) accesses
system.cpu.dcache.demand_miss_rate::.cpu.data     0.019728                       # miss rate for demand accesses
system.cpu.dcache.demand_miss_rate::total     0.019728                       # miss rate for demand accesses
system.cpu.dcache.overall_miss_rate::.cpu.data     0.019728                       # miss rate for overall accesses
system.cpu.dcache.overall_miss_rate::total     0.019728                       # miss rate for overall accesses
system.cpu.dcache.demand_avg_miss_latency::.cpu.data 63447.042420                       # average overall miss latency
system.cpu.dcache.demand_avg_miss_latency::total 63447.042420                       # average overall miss latency
system.cpu.dcache.overall_avg_miss_latency::.cpu.data 63447.042420                       # average overall miss latency
system.cpu.dcache.overall_avg_miss_latency::total 63447.042420                       # average overall miss latency
system.cpu.dcache.blocked_cycles::no_mshrs        15208                       # number of cycles access was blocked
system.cpu.dcache.blocked_cycles::no_targets            0                       # number of cycles access was blocked
system.cpu.dcache.blocked::no_mshrs               390                       # number of cycles access was blocked
system.cpu.dcache.blocked::no_targets               0                       # number of cycles access was blocked
system.cpu.dcache.avg_blocked_cycles::no_mshrs    38.994872                       # average number of cycles each access was blocked
system.cpu.dcache.avg_blocked_cycles::no_targets          nan                       # average number of cycles each access was blocked
system.cpu.dcache.writebacks::.writebacks        40468                       # number of writebacks
system.cpu.dcache.writebacks::total             40468                       # number of writebacks
system.cpu.dcache.demand_mshr_hits::.cpu.data        25370                       # number of demand (read+write) MSHR hits
system.cpu.dcache.demand_mshr_hits::total        25370                       # number of demand (read+write) MSHR hits
system.cpu.dcache.overall_mshr_hits::.cpu.data        25370                       # number of overall MSHR hits
system.cpu.dcache.overall_mshr_hits::total        25370                       # number of overall MSHR hits
system.cpu.dcache.demand_mshr_misses::.cpu.data        44620                       # number of demand (read+write) MSHR misses
system.cpu.dcache.demand_mshr_misses::total        44620                       # number of demand (read+write) MSHR misses
system.cpu.dcache.overall_mshr_misses::.cpu.data        44620                       # number of overall MSHR misses
system.cpu.dcache.overall_mshr_misses::total        44620                       # number of overall MSHR misses
system.cpu.dcache.demand_mshr_miss_latency::.cpu.data   3156287499                       # number of demand (read+write) MSHR miss cycles
system.cpu.dcache.demand_mshr_miss_latency::total   3156287499                       # number of demand (read+write) MSHR miss cycles
system.cpu.dcache.overall_mshr_miss_latency::.cpu.data   3156287499                       # number of overall MSHR miss cycles
system.cpu.dcache.overall_mshr_miss_latency::total   3156287499                       # number of overall MSHR miss cycles
system.cpu.dcache.demand_mshr_miss_rate::.cpu.data     0.012577                       # mshr miss rate for demand accesses
system.cpu.dcache.demand_mshr_miss_rate::total     0.012577                       # mshr miss rate for demand accesses
system.cpu.dcache.overall_mshr_miss_rate::.cpu.data     0.012577                       # mshr miss rate for overall accesses
system.cpu.dcache.overall_mshr_miss_rate::total     0.012577                       # mshr miss rate for overall accesses
system.cpu.dcache.demand_avg_mshr_miss_latency::.cpu.data 70737.057351                       # average overall mshr miss latency
system.cpu.dcache.demand_avg_mshr_miss_latency::total 70737.057351                       # average overall mshr miss latency
system.cpu.dcache.overall_avg_mshr_miss_latency::.cpu.data 70737.057351                       # average overall mshr miss latency
system.cpu.dcache.overall_avg_mshr_miss_latency::total 70737.057351                       # average overall mshr miss latency
system.cpu.dcache.replacements                  44105                       # number of replacements
system.cpu.dcache.ReadReq_hits::.cpu.data      1896695                       # number of ReadReq hits
system.cpu.dcache.ReadReq_hits::total         1896695                       # number of ReadReq hits
system.cpu.dcache.ReadReq_misses::.cpu.data        34883                       # number of ReadReq misses
system.cpu.dcache.ReadReq_misses::total         34883                       # number of ReadReq misses
system.cpu.dcache.ReadReq_miss_latency::.cpu.data   1905733500                       # number of ReadReq miss cycles
system.cpu.dcache.ReadReq_miss_latency::total   1905733500                       # number of ReadReq miss cycles
system.cpu.dcache.ReadReq_accesses::.cpu.data      1931578                       # number of ReadReq accesses(hits+misses)
system.cpu.dcache.ReadReq_accesses::total      1931578                       # number of ReadReq accesses(hits+misses)
system.cpu.dcache.ReadReq_miss_rate::.cpu.data     0.018059                       # miss rate for ReadReq accesses
system.cpu.dcache.ReadReq_miss_rate::total     0.018059                       # miss rate for ReadReq accesses
system.cpu.dcache.ReadReq_avg_miss_latency::.cpu.data 54632.156065                       # average ReadReq miss latency
system.cpu.dcache.ReadReq_avg_miss_latency::total 54632.156065                       # average ReadReq miss latency
system.cpu.dcache.ReadReq_mshr_hits::.cpu.data        22747                       # number of ReadReq MSHR hits
system.cpu.dcache.ReadReq_mshr_hits::total        22747                       # number of ReadReq MSHR hits
system.cpu.dcache.ReadReq_mshr_misses::.cpu.data        12136                       # number of ReadReq MSHR misses
system.cpu.dcache.ReadReq_mshr_misses::total        12136                       # number of ReadReq MSHR misses
system.cpu.dcache.ReadReq_mshr_miss_latency::.cpu.data    701984000                       # number of ReadReq MSHR miss cycles
system.cpu.dcache.ReadReq_mshr_miss_latency::total    701984000                       # number of ReadReq MSHR miss cycles
system.cpu.dcache.ReadReq_mshr_miss_rate::.cpu.data     0.006283                       # mshr miss rate for ReadReq accesses
system.cpu.dcache.ReadReq_mshr_miss_rate::total     0.006283                       # mshr miss rate for ReadReq accesses
system.cpu.dcache.ReadReq_avg_mshr_miss_latency::.cpu.data 57843.111404                       # average ReadReq mshr miss latency
system.cpu.dcache.ReadReq_avg_mshr_miss_latency::total 57843.111404                       # average ReadReq mshr miss latency
system.cpu.dcache.WriteReq_hits::.cpu.data      1581019                       # number of WriteReq hits
system.cpu.dcache.WriteReq_hits::total        1581019                       # number of WriteReq hits
system.cpu.dcache.WriteReq_misses::.cpu.data        35107                       # number of WriteReq misses
system.cpu.dcache.WriteReq_misses::total        35107                       # number of WriteReq misses
system.cpu.dcache.WriteReq_miss_latency::.cpu.data   2534924999                       # number of WriteReq miss cycles
system.cpu.dcache.WriteReq_miss_latency::total   2534924999                       # number of WriteReq miss cycles
system.cpu.dcache.WriteReq_accesses::.cpu.data      1616126                       # number of WriteReq accesses(hits+misses)
system.cpu.dcache.WriteReq_accesses::total      1616126                       # number of WriteReq accesses(hits+misses)
system.cpu.dcache.WriteReq_miss_rate::.cpu.data     0.021723                       # miss rate for WriteReq accesses
system.cpu.dcache.WriteReq_miss_rate::total     0.021723                       # miss rate for WriteReq accesses
system.cpu.dcache.WriteReq_avg_miss_latency::.cpu.data 72205.685447                       # average WriteReq miss latency
system.cpu.dcache.WriteReq_avg_miss_latency::total 72205.685447                       # average WriteReq miss latency
system.cpu.dcache.WriteReq_mshr_hits::.cpu.data         2623                       # number of WriteReq MSHR hits
system.cpu.dcache.WriteReq_mshr_hits::total         2623                       # number of WriteReq MSHR hits
system.cpu.dcache.WriteReq_mshr_misses::.cpu.data        32484                       # number of WriteReq MSHR misses
system.cpu.dcache.WriteReq_mshr_misses::total        32484                       # number of WriteReq MSHR misses
system.cpu.dcache.WriteReq_mshr_miss_latency::.cpu.data   2454303499                       # number of WriteReq MSHR miss cycles
system.cpu.dcache.WriteReq_mshr_miss_latency::total   2454303499                       # number of WriteReq MSHR miss cycles
system.cpu.dcache.WriteReq_mshr_miss_rate::.cpu.data     0.020100                       # mshr miss rate for WriteReq accesses
system.cpu.dcache.WriteReq_mshr_miss_rate::total     0.020100                       # mshr miss rate for WriteReq accesses
system.cpu.dcache.WriteReq_avg_mshr_miss_latency::.cpu.data 75554.226665                       # average WriteReq mshr miss latency
system.cpu.dcache.WriteReq_avg_mshr_miss_latency::total 75554.226665                       # average WriteReq mshr miss latency
system.cpu.dcache.power_state.pwrStateResidencyTicks::UNDEFINED   5466209500                       # Cumulative time (in ticks) in various power states
system.cpu.dcache.tags.tagsinuse           509.386741                       # Cycle average of tags in use
system.cpu.dcache.tags.total_refs             3522334                       # Total number of references to valid blocks.
system.cpu.dcache.tags.sampled_refs             44617                       # Sample count of references to valid blocks.
system.cpu.dcache.tags.avg_refs             78.946007                       # Average number of references to valid blocks.
system.cpu.dcache.tags.warmup_cycle            163000                       # Cycle when the warmup percentage was hit.
system.cpu.dcache.tags.occ_blocks::.cpu.data   509.386741                       # Average occupied blocks per requestor
system.cpu.dcache.tags.occ_percent::.cpu.data     0.994896                       # Average percentage of cache occupancy
system.cpu.dcache.tags.occ_percent::total     0.994896                       # Average percentage of cache occupancy
system.cpu.dcache.tags.occ_task_id_blocks::1024          512                       # Occupied blocks per task id
system.cpu.dcache.tags.age_task_id_blocks_1024::0           74                       # Occupied blocks per task id
system.cpu.dcache.tags.age_task_id_blocks_1024::1          329                       # Occupied blocks per task id
system.cpu.dcache.tags.age_task_id_blocks_1024::2           81                       # Occupied blocks per task id
system.cpu.dcache.tags.age_task_id_blocks_1024::3           28                       # Occupied blocks per task id
system.cpu.dcache.tags.occ_task_id_percent::1024            1                       # Percentage of cache occupancy per task id
system.cpu.dcache.tags.tag_accesses           7140025                       # Number of tag accesses
system.cpu.dcache.tags.data_accesses          7140025                       # Number of data accesses
system.cpu.dcache.tags.power_state.pwrStateResidencyTicks::UNDEFINED   5466209500                       # Cumulative time (in ticks) in various power states
system.cpu.decode.idleCycles                  2021859                       # Number of cycles decode is idle
system.cpu.decode.blockedCycles               5401454                       # Number of cycles decode is blocked
system.cpu.decode.runCycles                   3041802                       # Number of cycles decode is running
system.cpu.decode.unblockCycles                313445                       # Number of cycles decode is unblocking
system.cpu.decode.squashCycles                  67790                       # Number of cycles decode is squashing
system.cpu.decode.branchResolved               903684                       # Number of times decode resolved a  branch
system.cpu.decode.branchMispred                 11088                       # Number of times decode detected a branch misprediction
system.cpu.decode.decodedInsts               21315974                       # Number of instructions handled by decode
system.cpu.decode.squashedInsts                 60477                       # Number of squashed instructions handled by decode
system.cpu.dtb.rdAccesses                     2399091                       # TLB accesses on read requests
system.cpu.dtb.wrAccesses                     1667964                       # TLB accesses on write requests
system.cpu.dtb.rdMisses                           611                       # TLB misses on read requests
system.cpu.dtb.wrMisses                         18311                       # TLB misses on write requests
system.cpu.dtb.walker.power_state.pwrStateResidencyTicks::UNDEFINED   5466209500                       # Cumulative time (in ticks) in various power states
system.cpu.dtb_walker_cache.blocked_cycles::no_mshrs            0                       # number of cycles access was blocked
system.cpu.dtb_walker_cache.blocked_cycles::no_targets            0                       # number of cycles access was blocked
system.cpu.dtb_walker_cache.blocked::no_mshrs            0                       # number of cycles access was blocked
system.cpu.dtb_walker_cache.blocked::no_targets            0                       # number of cycles access was blocked
system.cpu.dtb_walker_cache.avg_blocked_cycles::no_mshrs          nan                       # average number of cycles each access was blocked
system.cpu.dtb_walker_cache.avg_blocked_cycles::no_targets          nan                       # average number of cycles each access was blocked
system.cpu.dtb_walker_cache.replacements            0                       # number of replacements
system.cpu.dtb_walker_cache.power_state.pwrStateResidencyTicks::UNDEFINED   5466209500                       # Cumulative time (in ticks) in various power states
system.cpu.dtb_walker_cache.tags.tagsinuse            0                       # Cycle average of tags in use
system.cpu.dtb_walker_cache.tags.total_refs            0                       # Total number of references to valid blocks.
system.cpu.dtb_walker_cache.tags.sampled_refs            0                       # Sample count of references to valid blocks.
system.cpu.dtb_walker_cache.tags.avg_refs          nan                       # Average number of references to valid blocks.
system.cpu.dtb_walker_cache.tags.warmup_cycle            0                       # Cycle when the warmup percentage was hit.
system.cpu.dtb_walker_cache.tags.tag_accesses            0                       # Number of tag accesses
system.cpu.dtb_walker_cache.tags.data_accesses            0                       # Number of data accesses
system.cpu.dtb_walker_cache.tags.power_state.pwrStateResidencyTicks::UNDEFINED   5466209500                       # Cumulative time (in ticks) in various power states
system.cpu.fetch.icacheStallCycles            2250022                       # Number of cycles fetch is stalled on an Icache miss
system.cpu.fetch.insts                       11687085                       # Number of instructions fetch has processed
system.cpu.fetch.branches                     2458536                       # Number of branches that fetch encountered
system.cpu.fetch.predictedBranches            1098522                       # Number of branches that fetch has predicted taken
system.cpu.fetch.cycles                       8515537                       # Number of cycles fetch has run and was not squashing or blocked
system.cpu.fetch.squashCycles                  157744                       # Number of cycles fetch has spent squashing
system.cpu.fetch.miscStallCycles                  226                       # Number of cycles fetch has spent waiting on interrupts,or bad addresses, or out of MSHRs
system.cpu.fetch.pendingTrapStallCycles          1683                       # Number of stall cycles due to pending traps
system.cpu.fetch.pendingQuiesceStallCycles            9                       # Number of stall cycles due to pending quiesce instructions
system.cpu.fetch.icacheWaitRetryStallCycles            1                       # Number of stall cycles due to full MSHR
system.cpu.fetch.cacheLines                   1781615                       # Number of cache lines fetched
system.cpu.fetch.icacheSquashes                 30916                       # Number of outstanding Icache misses that were squashed
system.cpu.fetch.nisnDist::samples           10846350                       # Number of instructions fetched each cycle (Total)
system.cpu.fetch.nisnDist::mean              2.031818                       # Number of instructions fetched each cycle (Total)
system.cpu.fetch.nisnDist::stdev             3.173543                       # Number of instructions fetched each cycle (Total)
system.cpu.fetch.nisnDist::underflows               0      0.00%      0.00% # Number of instructions fetched each cycle (Total)
system.cpu.fetch.nisnDist::0                  7155900     65.98%     65.98% # Number of instructions fetched each cycle (Total)
system.cpu.fetch.nisnDist::1                   161792      1.49%     67.47% # Number of instructions fetched each cycle (Total)
system.cpu.fetch.nisnDist::2                   419431      3.87%     71.33% # Number of instructions fetched each cycle (Total)
system.cpu.fetch.nisnDist::3                   314712      2.90%     74.24% # Number of instructions fetched each cycle (Total)
system.cpu.fetch.nisnDist::4                   206561      1.90%     76.14% # Number of instructions fetched each cycle (Total)
system.cpu.fetch.nisnDist::5                   241862      2.23%     78.37% # Number of instructions fetched each cycle (Total)
system.cpu.fetch.nisnDist::6                   255065      2.35%     80.72% # Number of instructions fetched each cycle (Total)
system.cpu.fetch.nisnDist::7                   201137      1.85%     82.58% # Number of instructions fetched each cycle (Total)
system.cpu.fetch.nisnDist::8                  1889890     17.42%    100.00% # Number of instructions fetched each cycle (Total)
system.cpu.fetch.nisnDist::overflows                0      0.00%    100.00% # Number of instructions fetched each cycle (Total)
system.cpu.fetch.nisnDist::min_value                0                       # Number of instructions fetched each cycle (Total)
system.cpu.fetch.nisnDist::max_value                8                       # Number of instructions fetched each cycle (Total)
system.cpu.fetch.nisnDist::total             10846350                       # Number of instructions fetched each cycle (Total)
system.cpu.fetch.branchRate                  0.224885                       # Number of branch fetches per cycle
system.cpu.fetch.rate                        1.069030                       # Number of inst fetches per cycle
system.cpu.icache.demand_hits::.cpu.inst      1763972                       # number of demand (read+write) hits
system.cpu.icache.demand_hits::total          1763972                       # number of demand (read+write) hits
system.cpu.icache.overall_hits::.cpu.inst      1763972                       # number of overall hits
system.cpu.icache.overall_hits::total         1763972                       # number of overall hits
system.cpu.icache.demand_misses::.cpu.inst        17643                       # number of demand (read+write) misses
system.cpu.icache.demand_misses::total          17643                       # number of demand (read+write) misses
system.cpu.icache.overall_misses::.cpu.inst        17643                       # number of overall misses
system.cpu.icache.overall_misses::total         17643                       # number of overall misses
system.cpu.icache.demand_miss_latency::.cpu.inst    324744999                       # number of demand (read+write) miss cycles
system.cpu.icache.demand_miss_latency::total    324744999                       # number of demand (read+write) miss cycles
system.cpu.icache.overall_miss_latency::.cpu.inst    324744999                       # number of overall miss cycles
system.cpu.icache.overall_miss_latency::total    324744999                       # number of overall miss cycles
system.cpu.icache.demand_accesses::.cpu.inst      1781615                       # number of demand (read+write) accesses
system.cpu.icache.demand_accesses::total      1781615                       # number of demand (read+write) accesses
system.cpu.icache.overall_accesses::.cpu.inst      1781615                       # number of overall (read+write) accesses
system.cpu.icache.overall_accesses::total      1781615                       # number of overall (read+write) accesses
system.cpu.icache.demand_miss_rate::.cpu.inst     0.009903                       # miss rate for demand accesses
system.cpu.icache.demand_miss_rate::total     0.009903                       # miss rate for demand accesses
system.cpu.icache.overall_miss_rate::.cpu.inst     0.009903                       # miss rate for overall accesses
system.cpu.icache.overall_miss_rate::total     0.009903                       # miss rate for overall accesses
system.cpu.icache.demand_avg_miss_latency::.cpu.inst 18406.450094                       # average overall miss latency
system.cpu.icache.demand_avg_miss_latency::total 18406.450094                       # average overall miss latency
system.cpu.icache.overall_avg_miss_latency::.cpu.inst 18406.450094                       # average overall miss latency
system.cpu.icache.overall_avg_miss_latency::total 18406.450094                       # average overall miss latency
system.cpu.icache.blocked_cycles::no_mshrs          400                       # number of cycles access was blocked
system.cpu.icache.blocked_cycles::no_targets            0                       # number of cycles access was blocked
system.cpu.icache.blocked::no_mshrs                 7                       # number of cycles access was blocked
system.cpu.icache.blocked::no_targets               0                       # number of cycles access was blocked
system.cpu.icache.avg_blocked_cycles::no_mshrs    57.142857                       # average number of cycles each access was blocked
system.cpu.icache.avg_blocked_cycles::no_targets          nan                       # average number of cycles each access was blocked
system.cpu.icache.writebacks::.writebacks        16698                       # number of writebacks
system.cpu.icache.writebacks::total             16698                       # number of writebacks
system.cpu.icache.demand_mshr_hits::.cpu.inst          437                       # number of demand (read+write) MSHR hits
system.cpu.icache.demand_mshr_hits::total          437                       # number of demand (read+write) MSHR hits
system.cpu.icache.overall_mshr_hits::.cpu.inst          437                       # number of overall MSHR hits
system.cpu.icache.overall_mshr_hits::total          437                       # number of overall MSHR hits
system.cpu.icache.demand_mshr_misses::.cpu.inst        17206                       # number of demand (read+write) MSHR misses
system.cpu.icache.demand_mshr_misses::total        17206                       # number of demand (read+write) MSHR misses
system.cpu.icache.overall_mshr_misses::.cpu.inst        17206                       # number of overall MSHR misses
system.cpu.icache.overall_mshr_misses::total        17206                       # number of overall MSHR misses
system.cpu.icache.demand_mshr_miss_latency::.cpu.inst    284738999                       # number of demand (read+write) MSHR miss cycles
system.cpu.icache.demand_mshr_miss_latency::total    284738999                       # number of demand (read+write) MSHR miss cycles
system.cpu.icache.overall_mshr_miss_latency::.cpu.inst    284738999                       # number of overall MSHR miss cycles
system.cpu.icache.overall_mshr_miss_latency::total    284738999                       # number of overall MSHR miss cycles
system.cpu.icache.demand_mshr_miss_rate::.cpu.inst     0.009658                       # mshr miss rate for demand accesses
system.cpu.icache.demand_mshr_miss_rate::total     0.009658                       # mshr miss rate for demand accesses
system.cpu.icache.overall_mshr_miss_rate::.cpu.inst     0.009658                       # mshr miss rate for overall accesses
system.cpu.icache.overall_mshr_miss_rate::total     0.009658                       # mshr miss rate for overall accesses
system.cpu.icache.demand_avg_mshr_miss_latency::.cpu.inst 16548.820121                       # average overall mshr miss latency
system.cpu.icache.demand_avg_mshr_miss_latency::total 16548.820121                       # average overall mshr miss latency
system.cpu.icache.overall_avg_mshr_miss_latency::.cpu.inst 16548.820121                       # average overall mshr miss latency
system.cpu.icache.overall_avg_mshr_miss_latency::total 16548.820121                       # average overall mshr miss latency
system.cpu.icache.replacements                  16698                       # number of replacements
system.cpu.icache.ReadReq_hits::.cpu.inst      1763972                       # number of ReadReq hits
system.cpu.icache.ReadReq_hits::total         1763972                       # number of ReadReq hits
system.cpu.icache.ReadReq_misses::.cpu.inst        17643                       # number of ReadReq misses
system.cpu.icache.ReadReq_misses::total         17643                       # number of ReadReq misses
system.cpu.icache.ReadReq_miss_latency::.cpu.inst    324744999                       # number of ReadReq miss cycles
system.cpu.icache.ReadReq_miss_latency::total    324744999                       # number of ReadReq miss cycles
system.cpu.icache.ReadReq_accesses::.cpu.inst      1781615                       # number of ReadReq accesses(hits+misses)
system.cpu.icache.ReadReq_accesses::total      1781615                       # number of ReadReq accesses(hits+misses)
system.cpu.icache.ReadReq_miss_rate::.cpu.inst     0.009903                       # miss rate for ReadReq accesses
system.cpu.icache.ReadReq_miss_rate::total     0.009903                       # miss rate for ReadReq accesses
system.cpu.icache.ReadReq_avg_miss_latency::.cpu.inst 18406.450094                       # average ReadReq miss latency
system.cpu.icache.ReadReq_avg_miss_latency::total 18406.450094                       # average ReadReq miss latency
system.cpu.icache.ReadReq_mshr_hits::.cpu.inst          437                       # number of ReadReq MSHR hits
system.cpu.icache.ReadReq_mshr_hits::total          437                       # number of ReadReq MSHR hits
system.cpu.icache.ReadReq_mshr_misses::.cpu.inst        17206                       # number of ReadReq MSHR misses
system.cpu.icache.ReadReq_mshr_misses::total        17206                       # number of ReadReq MSHR misses
system.cpu.icache.ReadReq_mshr_miss_latency::.cpu.inst    284738999                       # number of ReadReq MSHR miss cycles
system.cpu.icache.ReadReq_mshr_miss_latency::total    284738999                       # number of ReadReq MSHR miss cycles
system.cpu.icache.ReadReq_mshr_miss_rate::.cpu.inst     0.009658                       # mshr miss rate for ReadReq accesses
system.cpu.icache.ReadReq_mshr_miss_rate::total     0.009658                       # mshr miss rate for ReadReq accesses
system.cpu.icache.ReadReq_avg_mshr_miss_latency::.cpu.inst 16548.820121                       # average ReadReq mshr miss latency
system.cpu.icache.ReadReq_avg_mshr_miss_latency::total 16548.820121                       # average ReadReq mshr miss latency
system.cpu.icache.power_state.pwrStateResidencyTicks::UNDEFINED   5466209500                       # Cumulative time (in ticks) in various power states
system.cpu.icache.tags.tagsinuse           502.131829                       # Cycle average of tags in use
system.cpu.icache.tags.total_refs             1781178                       # Total number of references to valid blocks.
system.cpu.icache.tags.sampled_refs             17206                       # Sample count of references to valid blocks.
system.cpu.icache.tags.avg_refs            103.520749                       # Average number of references to valid blocks.
system.cpu.icache.tags.warmup_cycle             79500                       # Cycle when the warmup percentage was hit.
system.cpu.icache.tags.occ_blocks::.cpu.inst   502.131829                       # Average occupied blocks per requestor
system.cpu.icache.tags.occ_percent::.cpu.inst     0.980726                       # Average percentage of cache occupancy
system.cpu.icache.tags.occ_percent::total     0.980726                       # Average percentage of cache occupancy
system.cpu.icache.tags.occ_task_id_blocks::1024          505                       # Occupied blocks per task id
system.cpu.icache.tags.age_task_id_blocks_1024::0            2                       # Occupied blocks per task id
system.cpu.icache.tags.age_task_id_blocks_1024::2            1                       # Occupied blocks per task id
system.cpu.icache.tags.age_task_id_blocks_1024::3          502                       # Occupied blocks per task id
system.cpu.icache.tags.occ_task_id_percent::1024     0.986328                       # Percentage of cache occupancy per task id
system.cpu.icache.tags.tag_accesses           3580436                       # Number of tag accesses
system.cpu.icache.tags.data_accesses          3580436                       # Number of data accesses
system.cpu.icache.tags.power_state.pwrStateResidencyTicks::UNDEFINED   5466209500                       # Cumulative time (in ticks) in various power states
system.cpu.interrupts.clk_domain.clock           8000                       # Clock period in ticks
system.cpu.itb.rdAccesses                           0                       # TLB accesses on read requests
system.cpu.itb.wrAccesses                     1781855                       # TLB accesses on write requests
system.cpu.itb.rdMisses                             0                       # TLB misses on read requests
system.cpu.itb.wrMisses                           373                       # TLB misses on write requests
system.cpu.itb.walker.power_state.pwrStateResidencyTicks::UNDEFINED   5466209500                       # Cumulative time (in ticks) in various power states
system.cpu.itb_walker_cache.blocked_cycles::no_mshrs            0                       # number of cycles access was blocked
system.cpu.itb_walker_cache.blocked_cycles::no_targets            0                       # number of cycles access was blocked
system.cpu.itb_walker_cache.blocked::no_mshrs            0                       # number of cycles access was blocked
system.cpu.itb_walker_cache.blocked::no_targets            0                       # number of cycles access was blocked
system.cpu.itb_walker_cache.avg_blocked_cycles::no_mshrs          nan                       # average number of cycles each access was blocked
system.cpu.itb_walker_cache.avg_blocked_cycles::no_targets          nan                       # average number of cycles each access was blocked
system.cpu.itb_walker_cache.replacements            0                       # number of replacements
system.cpu.itb_walker_cache.power_state.pwrStateResidencyTicks::UNDEFINED   5466209500                       # Cumulative time (in ticks) in various power states
system.cpu.itb_walker_cache.tags.tagsinuse            0                       # Cycle average of tags in use
system.cpu.itb_walker_cache.tags.total_refs            0                       # Total number of references to valid blocks.
system.cpu.itb_walker_cache.tags.sampled_refs            0                       # Sample count of references to valid blocks.
system.cpu.itb_walker_cache.tags.avg_refs          nan                       # Average number of references to valid blocks.
system.cpu.itb_walker_cache.tags.warmup_cycle            0                       # Cycle when the warmup percentage was hit.
system.cpu.itb_walker_cache.tags.tag_accesses            0                       # Number of tag accesses
system.cpu.itb_walker_cache.tags.data_accesses            0                       # Number of data accesses
system.cpu.itb_walker_cache.tags.power_state.pwrStateResidencyTicks::UNDEFINED   5466209500                       # Cumulative time (in ticks) in various power states
system.cpu.lsq0.forwLoads                      461830                       # Number of loads that had data forwarded from stores
system.cpu.lsq0.squashedLoads                  193560                       # Number of loads squashed
system.cpu.lsq0.ignoredResponses                 5435                       # Number of memory responses ignored because the instruction is squashed
system.cpu.lsq0.memOrderViolation                 187                       # Number of memory ordering violations
system.cpu.lsq0.squashedStores                  81419                       # Number of stores squashed
system.cpu.lsq0.rescheduledLoads                 5260                       # Number of loads that were rescheduled
system.cpu.lsq0.blockedByCache                    291                       # Number of times an access to memory failed due to the cache being blocked
system.cpu.power_state.pwrStateResidencyTicks::ON   5466209500                       # Cumulative time (in ticks) in various power states
system.cpu.rename.squashCycles                  67790                       # Number of cycles rename is squashing
system.cpu.rename.idleCycles                  2181452                       # Number of cycles rename is idle
system.cpu.rename.blockCycles                 1717276                       # Number of cycles rename is blocking
system.cpu.rename.serializeStallCycles           2635                       # count of cycles rename stalledfor serializing inst
system.cpu.rename.runCycles                   3189283                       # Number of cycles rename is running
system.cpu.rename.unblockCycles               3687914                       # Number of cycles rename is unblocking
system.cpu.rename.renamedInsts               21102007                       # Number of instructions processed by rename
system.cpu.rename.ROBFullEvents                  7283                       # Number of times rename has blocked due to ROB full
system.cpu.rename.IQFullEvents                 131423                       # Number of times rename has blocked due to IQ full
system.cpu.rename.LQFullEvents                    604                       # Number of times rename has blocked due to LQ full
system.cpu.rename.SQFullEvents                3506834                       # Number of times rename has blocked due to SQ full
system.cpu.rename.renamedOperands            23500516                       # Number of destination operands rename has renamed
system.cpu.rename.lookups                    55591572                       # Number of register rename lookups that rename has made
system.cpu.rename.intLookups                 32918451                       # Number of integer rename lookups
system.cpu.rename.fpLookups                    570044                       # Number of floating rename lookups
system.cpu.rename.committedMaps              20863668                       # Number of HB maps that are committed
system.cpu.rename.undoneMaps                  2636810                       # Number of HB maps that are undone due to squashing
system.cpu.rename.serializing                      37                       # count of serializing insts renamed
system.cpu.rename.tempSerializing                  22                       # count of temporary serializing insts renamed
system.cpu.rename.skidInsts                   1708893                       # count of insts added to the skid buffer
system.cpu.rob.reads                         30171559                       # The number of ROB reads
system.cpu.rob.writes                        41419501                       # The number of ROB writes
system.cpu.thread_0.numInsts                 10000001                       # Number of Instructions committed
system.cpu.thread_0.numOps                   18847133                       # Number of Ops committed
system.cpu.thread_0.numMemRefs                      0                       # Number of Memory References
system.cpu_clk_domain.clock                       500                       # Clock period in ticks
system.cpu_voltage_domain.voltage                   1                       # Voltage in Volts
system.l2.demand_hits::.cpu.inst                15876                       # number of demand (read+write) hits
system.l2.demand_hits::.cpu.data                 6971                       # number of demand (read+write) hits
system.l2.demand_hits::total                    22847                       # number of demand (read+write) hits
system.l2.overall_hits::.cpu.inst               15876                       # number of overall hits
system.l2.overall_hits::.cpu.data                6971                       # number of overall hits
system.l2.overall_hits::total                   22847                       # number of overall hits
system.l2.demand_misses::.cpu.inst               1327                       # number of demand (read+write) misses
system.l2.demand_misses::.cpu.data              37646                       # number of demand (read+write) misses
system.l2.demand_misses::total                  38973                       # number of demand (read+write) misses
system.l2.overall_misses::.cpu.inst              1327                       # number of overall misses
system.l2.overall_misses::.cpu.data             37646                       # number of overall misses
system.l2.overall_misses::total                 38973                       # number of overall misses
system.l2.demand_miss_latency::.cpu.inst     91879000                       # number of demand (read+write) miss cycles
system.l2.demand_miss_latency::.cpu.data   3014223000                       # number of demand (read+write) miss cycles
system.l2.demand_miss_latency::total       3106102000                       # number of demand (read+write) miss cycles
system.l2.overall_miss_latency::.cpu.inst     91879000                       # number of overall miss cycles
system.l2.overall_miss_latency::.cpu.data   3014223000                       # number of overall miss cycles
system.l2.overall_miss_latency::total      3106102000                       # number of overall miss cycles
system.l2.demand_accesses::.cpu.inst            17203                       # number of demand (read+write) accesses
system.l2.demand_accesses::.cpu.data            44617                       # number of demand (read+write) accesses
system.l2.demand_accesses::total                61820                       # number of demand (read+write) accesses
system.l2.overall_accesses::.cpu.inst           17203                       # number of overall (read+write) accesses
system.l2.overall_accesses::.cpu.data           44617                       # number of overall (read+write) accesses
system.l2.overall_accesses::total               61820                       # number of overall (read+write) accesses
system.l2.demand_miss_rate::.cpu.inst        0.077138                       # miss rate for demand accesses
system.l2.demand_miss_rate::.cpu.data        0.843759                       # miss rate for demand accesses
system.l2.demand_miss_rate::total            0.630427                       # miss rate for demand accesses
system.l2.overall_miss_rate::.cpu.inst       0.077138                       # miss rate for overall accesses
system.l2.overall_miss_rate::.cpu.data       0.843759                       # miss rate for overall accesses
system.l2.overall_miss_rate::total           0.630427                       # miss rate for overall accesses
system.l2.demand_avg_miss_latency::.cpu.inst 69238.131123                       # average overall miss latency
system.l2.demand_avg_miss_latency::.cpu.data 80067.550337                       # average overall miss latency
system.l2.demand_avg_miss_latency::total 79698.817130                       # average overall miss latency
system.l2.overall_avg_miss_latency::.cpu.inst 69238.131123                       # average overall miss latency
system.l2.overall_avg_miss_latency::.cpu.data 80067.550337                       # average overall miss latency
[...]
system.mem_ctrls.dram.readBursts                38973                       # Number of DRAM read bursts
system.mem_ctrls.dram.writeBursts               27372                       # Number of DRAM write bursts
system.mem_ctrls.dram.perBankRdBursts::0         2323                       # Per bank write bursts
system.mem_ctrls.dram.perBankRdBursts::1         2381                       # Per bank write bursts
system.mem_ctrls.dram.perBankRdBursts::2         2543                       # Per bank write bursts
system.mem_ctrls.dram.perBankRdBursts::3         2367                       # Per bank write bursts
system.mem_ctrls.dram.perBankRdBursts::4         2516                       # Per bank write bursts
system.mem_ctrls.dram.perBankRdBursts::5         2590                       # Per bank write bursts
system.mem_ctrls.dram.perBankRdBursts::6         2336                       # Per bank write bursts
system.mem_ctrls.dram.perBankRdBursts::7         2505                       # Per bank write bursts
system.mem_ctrls.dram.perBankRdBursts::8         2445                       # Per bank write bursts
system.mem_ctrls.dram.perBankRdBursts::9         2399                       # Per bank write bursts
system.mem_ctrls.dram.perBankRdBursts::10         2351                       # Per bank write bursts
system.mem_ctrls.dram.perBankRdBursts::11         2374                       # Per bank write bursts
system.mem_ctrls.dram.perBankRdBursts::12         2575                       # Per bank write bursts
system.mem_ctrls.dram.perBankRdBursts::13         2438                       # Per bank write bursts
system.mem_ctrls.dram.perBankRdBursts::14         2447                       # Per bank write bursts
system.mem_ctrls.dram.perBankRdBursts::15         2383                       # Per bank write bursts
system.mem_ctrls.dram.perBankWrBursts::0         1609                       # Per bank write bursts
system.mem_ctrls.dram.perBankWrBursts::1         1588                       # Per bank write bursts
system.mem_ctrls.dram.perBankWrBursts::2         1830                       # Per bank write bursts
system.mem_ctrls.dram.perBankWrBursts::3         1717                       # Per bank write bursts
system.mem_ctrls.dram.perBankWrBursts::4         1762                       # Per bank write bursts
system.mem_ctrls.dram.perBankWrBursts::5         1728                       # Per bank write bursts
system.mem_ctrls.dram.perBankWrBursts::6         1659                       # Per bank write bursts
system.mem_ctrls.dram.perBankWrBursts::7         1792                       # Per bank write bursts
system.mem_ctrls.dram.perBankWrBursts::8         1769                       # Per bank write bursts
system.mem_ctrls.dram.perBankWrBursts::9         1719                       # Per bank write bursts
system.mem_ctrls.dram.perBankWrBursts::10         1681                       # Per bank write bursts
system.mem_ctrls.dram.perBankWrBursts::11         1652                       # Per bank write bursts
system.mem_ctrls.dram.perBankWrBursts::12         1789                       # Per bank write bursts
system.mem_ctrls.dram.perBankWrBursts::13         1715                       # Per bank write bursts
system.mem_ctrls.dram.perBankWrBursts::14         1659                       # Per bank write bursts
system.mem_ctrls.dram.perBankWrBursts::15         1703                       # Per bank write bursts
system.mem_ctrls.dram.totQLat               692276500                       # Total ticks spent queuing
system.mem_ctrls.dram.totBusLat             194865000                       # Total ticks spent in databus transfers
system.mem_ctrls.dram.totMemAccLat         1423020250                       # Total ticks spent from burst creation until serviced by the DRAM
system.mem_ctrls.dram.avgQLat                17762.98                       # Average queueing delay per DRAM burst
system.mem_ctrls.dram.avgBusLat               5000.00                       # Average bus latency per DRAM burst
system.mem_ctrls.dram.avgMemAccLat           36512.98                       # Average memory access latency per DRAM burst
system.mem_ctrls.dram.readRowHits               19059                       # Number of row buffer hits during reads
system.mem_ctrls.dram.writeRowHits              14657                       # Number of row buffer hits during writes
system.mem_ctrls.dram.readRowHitRate            48.90                       # Row buffer hit rate for reads
system.mem_ctrls.dram.writeRowHitRate           53.55                       # Row buffer hit rate for writes
system.mem_ctrls.dram.bytesPerActivate::samples        32629                       # Bytes accessed per row activation
system.mem_ctrls.dram.bytesPerActivate::mean   130.132091                       # Bytes accessed per row activation
system.mem_ctrls.dram.bytesPerActivate::gmean    96.580094                       # Bytes accessed per row activation
system.mem_ctrls.dram.bytesPerActivate::stdev   143.691730                       # Bytes accessed per row activation
system.mem_ctrls.dram.bytesPerActivate::0-127        21309     65.31%     65.31% # Bytes accessed per row activation
system.mem_ctrls.dram.bytesPerActivate::128-255         7182     22.01%     87.32% # Bytes accessed per row activation
system.mem_ctrls.dram.bytesPerActivate::256-383         1810      5.55%     92.87% # Bytes accessed per row activation
system.mem_ctrls.dram.bytesPerActivate::384-511          924      2.83%     95.70% # Bytes accessed per row activation
system.mem_ctrls.dram.bytesPerActivate::512-639          688      2.11%     97.81% # Bytes accessed per row activation
system.mem_ctrls.dram.bytesPerActivate::640-767          303      0.93%     98.73% # Bytes accessed per row activation
system.mem_ctrls.dram.bytesPerActivate::768-895          182      0.56%     99.29% # Bytes accessed per row activation
system.mem_ctrls.dram.bytesPerActivate::896-1023           73      0.22%     99.52% # Bytes accessed per row activation
system.mem_ctrls.dram.bytesPerActivate::1024-1151          158      0.48%    100.00% # Bytes accessed per row activation
system.mem_ctrls.dram.bytesPerActivate::total        32629                       # Bytes accessed per row activation
system.mem_ctrls.dram.bytesRead               2494272                       # Total number of bytes read from DRAM
system.mem_ctrls.dram.bytesWritten            1751808                       # Total number of bytes written to DRAM
system.mem_ctrls.dram.avgRdBW              456.307428                       # Average DRAM read bandwidth in MiBytes/s
system.mem_ctrls.dram.avgWrBW              320.479484                       # Average DRAM write bandwidth in MiBytes/s
system.mem_ctrls.dram.peakBW                 12800.00                       # Theoretical peak bandwidth in MiByte/s
system.mem_ctrls.dram.busUtil                    6.07                       # Data bus utilization in percentage
system.mem_ctrls.dram.busUtilRead                3.56                       # Data bus utilization in percentage for reads
system.mem_ctrls.dram.busUtilWrite               2.50                       # Data bus utilization in percentage for writes
system.mem_ctrls.dram.pageHitRate               50.82                       # Row buffer hit rate, read and write combined
system.mem_ctrls.dram.power_state.pwrStateResidencyTicks::UNDEFINED   5466209500                       # Cumulative time (in ticks) in various power states
system.mem_ctrls.dram.rank0.actEnergy       117160260                       # Energy for activate commands per rank (pJ)
system.mem_ctrls.dram.rank0.preEnergy        62272155                       # Energy for precharge commands per rank (pJ)
system.mem_ctrls.dram.rank0.readEnergy      139665540                       # Energy for read commands per rank (pJ)
system.mem_ctrls.dram.rank0.writeEnergy      71435700                       # Energy for write commands per rank (pJ)
system.mem_ctrls.dram.rank0.refreshEnergy 431477280.000000                       # Energy for refresh commands per rank (pJ)
system.mem_ctrls.dram.rank0.actBackEnergy   2404928040                       # Energy for active background per rank (pJ)
system.mem_ctrls.dram.rank0.preBackEnergy     73822080                       # Energy for precharge background per rank (pJ)
system.mem_ctrls.dram.rank0.actPowerDownEnergy            0                       # Energy for active power-down per rank (pJ)
system.mem_ctrls.dram.rank0.prePowerDownEnergy            0                       # Energy for precharge power-down per rank (pJ)
system.mem_ctrls.dram.rank0.selfRefreshEnergy            0                       # Energy for self refresh per rank (pJ)
system.mem_ctrls.dram.rank0.totalEnergy    3300761055                       # Total energy per rank (pJ)
system.mem_ctrls.dram.rank0.averagePower   603.848253                       # Core power per rank (mW)
system.mem_ctrls.dram.rank0.totalIdleTime            0                       # Total Idle time Per DRAM Rank
system.mem_ctrls.dram.rank0.pwrStateTime::IDLE    171970500                       # Time in different power states
system.mem_ctrls.dram.rank0.pwrStateTime::REF    182508250                       # Time in different power states
system.mem_ctrls.dram.rank0.pwrStateTime::SREF            0                       # Time in different power states
system.mem_ctrls.dram.rank0.pwrStateTime::PRE_PDN            0                       # Time in different power states
system.mem_ctrls.dram.rank0.pwrStateTime::ACT   5111730750                       # Time in different power states
system.mem_ctrls.dram.rank0.pwrStateTime::ACT_PDN            0                       # Time in different power states
system.mem_ctrls.dram.rank1.actEnergy       115810800                       # Energy for activate commands per rank (pJ)
system.mem_ctrls.dram.rank1.preEnergy        61554900                       # Energy for precharge commands per rank (pJ)
system.mem_ctrls.dram.rank1.readEnergy      138601680                       # Energy for read commands per rank (pJ)
system.mem_ctrls.dram.rank1.writeEnergy      71446140                       # Energy for write commands per rank (pJ)
system.mem_ctrls.dram.rank1.refreshEnergy 431477280.000000                       # Energy for refresh commands per rank (pJ)
system.mem_ctrls.dram.rank1.actBackEnergy   2405478660                       # Energy for active background per rank (pJ)
system.mem_ctrls.dram.rank1.preBackEnergy     73358400                       # Energy for precharge background per rank (pJ)
system.mem_ctrls.dram.rank1.actPowerDownEnergy            0                       # Energy for active power-down per rank (pJ)
system.mem_ctrls.dram.rank1.prePowerDownEnergy            0                       # Energy for precharge power-down per rank (pJ)
system.mem_ctrls.dram.rank1.selfRefreshEnergy            0                       # Energy for self refresh per rank (pJ)
system.mem_ctrls.dram.rank1.totalEnergy    3297727860                       # Total energy per rank (pJ)
system.mem_ctrls.dram.rank1.averagePower   603.293353                       # Core power per rank (mW)
system.mem_ctrls.dram.rank1.totalIdleTime            0                       # Total Idle time Per DRAM Rank
system.mem_ctrls.dram.rank1.pwrStateTime::IDLE    170665000                       # Time in different power states
system.mem_ctrls.dram.rank1.pwrStateTime::REF    182508250                       # Time in different power states
system.mem_ctrls.dram.rank1.pwrStateTime::SREF            0                       # Time in different power states
system.mem_ctrls.dram.rank1.pwrStateTime::PRE_PDN            0                       # Time in different power states
system.mem_ctrls.dram.rank1.pwrStateTime::ACT   5113036250                       # Time in different power states
system.mem_ctrls.dram.rank1.pwrStateTime::ACT_PDN            0                       # Time in different power states
system.mem_ctrls.power_state.pwrStateResidencyTicks::UNDEFINED   5466209500                       # Cumulative time (in ticks) in various power states
system.membus.trans_dist::ReadResp              10149                       # Transaction distribution
system.membus.trans_dist::WritebackDirty        27396                       # Transaction distribution
system.membus.trans_dist::CleanEvict             2856                       # Transaction distribution
system.membus.trans_dist::ReadExReq             28824                       # Transaction distribution
system.membus.trans_dist::ReadExResp            28824                       # Transaction distribution
system.membus.trans_dist::ReadSharedReq         10149                       # Transaction distribution
system.membus.pkt_count_system.l2.mem_side_port::system.mem_ctrls.port       108198                       # Packet count per connected requestor and responder (bytes)
system.membus.pkt_count_system.l2.mem_side_port::total       108198                       # Packet count per connected requestor and responder (bytes)
system.membus.pkt_count::total                 108198                       # Packet count per connected requestor and responder (bytes)
system.membus.pkt_size_system.l2.mem_side_port::system.mem_ctrls.port      4247616                       # Cumulative packet size per connected requestor and responder (bytes)
system.membus.pkt_size_system.l2.mem_side_port::total      4247616                       # Cumulative packet size per connected requestor and responder (bytes)
system.membus.pkt_size::total                 4247616                       # Cumulative packet size per connected requestor and responder (bytes)
system.membus.snoops                                0                       # Total snoops (count)
system.membus.snoopTraffic                          0                       # Total snoop traffic (bytes)
system.membus.snoop_fanout::samples             38973                       # Request fanout histogram
system.membus.snoop_fanout::mean                    0                       # Request fanout histogram
system.membus.snoop_fanout::stdev                   0                       # Request fanout histogram
system.membus.snoop_fanout::underflows              0      0.00%      0.00% # Request fanout histogram
system.membus.snoop_fanout::0                   38973    100.00%    100.00% # Request fanout histogram
system.membus.snoop_fanout::1                       0      0.00%    100.00% # Request fanout histogram
system.membus.snoop_fanout::overflows               0      0.00%    100.00% # Request fanout histogram
system.membus.snoop_fanout::min_value               0                       # Request fanout histogram
system.membus.snoop_fanout::max_value               0                       # Request fanout histogram
system.membus.snoop_fanout::total               38973                       # Request fanout histogram
system.membus.power_state.pwrStateResidencyTicks::UNDEFINED   5466209500                       # Cumulative time (in ticks) in various power states
system.membus.reqLayer2.occupancy            44702250                       # Layer occupancy (ticks)
system.membus.reqLayer2.utilization               0.8                       # Layer utilization (%)
system.membus.respLayer1.occupancy           48716250                       # Layer occupancy (ticks)
system.membus.respLayer1.utilization              0.9                       # Layer utilization (%)
system.tol2bus.trans_dist::ReadResp             29339                       # Transaction distribution
system.tol2bus.trans_dist::WritebackDirty        67864                       # Transaction distribution
system.tol2bus.trans_dist::WritebackClean        16698                       # Transaction distribution
system.tol2bus.trans_dist::CleanEvict            7065                       # Transaction distribution
system.tol2bus.trans_dist::UpgradeReq               3                       # Transaction distribution
system.tol2bus.trans_dist::UpgradeResp              3                       # Transaction distribution
system.tol2bus.trans_dist::ReadExReq            32484                       # Transaction distribution
system.tol2bus.trans_dist::ReadExResp           32484                       # Transaction distribution
system.tol2bus.trans_dist::ReadCleanReq         17206                       # Transaction distribution
system.tol2bus.trans_dist::ReadSharedReq        12133                       # Transaction distribution
system.tol2bus.pkt_count_system.cpu.icache.mem_side_port::system.l2.cpu_side_port        51107                       # Packet count per connected requestor and responder (bytes)
system.tol2bus.pkt_count_system.cpu.dcache.mem_side_port::system.l2.cpu_side_port       133345                       # Packet count per connected requestor and responder (bytes)
system.tol2bus.pkt_count::total                184452                       # Packet count per connected requestor and responder (bytes)
system.tol2bus.pkt_size_system.cpu.icache.mem_side_port::system.l2.cpu_side_port      2169664                       # Cumulative packet size per connected requestor and responder (bytes)
system.tol2bus.pkt_size_system.cpu.dcache.mem_side_port::system.l2.cpu_side_port      5445440                       # Cumulative packet size per connected requestor and responder (bytes)
system.tol2bus.pkt_size::total                7615104                       # Cumulative packet size per connected requestor and responder (bytes)
system.tol2bus.snoops                           30827                       # Total snoops (count)
system.tol2bus.snoopTraffic                   1753536                       # Total snoop traffic (bytes)
system.tol2bus.snoop_fanout::samples            92650                       # Request fanout histogram
system.tol2bus.snoop_fanout::mean            0.006422                       # Request fanout histogram
system.tol2bus.snoop_fanout::stdev           0.080419                       # Request fanout histogram
system.tol2bus.snoop_fanout::underflows             0      0.00%      0.00% # Request fanout histogram
system.tol2bus.snoop_fanout::0                  92059     99.36%     99.36% # Request fanout histogram
system.tol2bus.snoop_fanout::1                    587      0.63%    100.00% # Request fanout histogram
system.tol2bus.snoop_fanout::2                      4      0.00%    100.00% # Request fanout histogram
system.tol2bus.snoop_fanout::3                      0      0.00%    100.00% # Request fanout histogram
system.tol2bus.snoop_fanout::4                      0      0.00%    100.00% # Request fanout histogram
system.tol2bus.snoop_fanout::overflows              0      0.00%    100.00% # Request fanout histogram
system.tol2bus.snoop_fanout::min_value              0                       # Request fanout histogram
system.tol2bus.snoop_fanout::max_value              2                       # Request fanout histogram
system.tol2bus.snoop_fanout::total              92650                       # Request fanout histogram
system.tol2bus.power_state.pwrStateResidencyTicks::UNDEFINED   5466209500                       # Cumulative time (in ticks) in various power states
system.tol2bus.reqLayer0.occupancy          118480500                       # Layer occupancy (ticks)
system.tol2bus.reqLayer0.utilization              2.2                       # Layer utilization (%)
system.tol2bus.respLayer0.occupancy          25809998                       # Layer occupancy (ticks)
system.tol2bus.respLayer0.utilization             0.5                       # Layer utilization (%)
system.tol2bus.respLayer1.occupancy          66927499                       # Layer occupancy (ticks)
system.tol2bus.respLayer1.utilization             1.2                       # Layer utilization (%)
system.voltage_domain.voltage                       1                       # Voltage in Volts

---------- End Simulation Statistics   ----------
