
---------- Begin Simulation Statistics ----------
final_tick                                 2956809500                       # Number of ticks from beginning of simulation (restored from checkpoints and never reset)
host_inst_rate                                  91918                       # Simulator instruction rate (inst/s)
host_mem_usage                                 706980                       # Number of bytes of host memory used
host_op_rate                                   164641                       # Simulator op (including micro ops) rate (op/s)
host_seconds                                   108.79                       # Real time elapsed on the host
host_tick_rate                               27178376                       # Simulator tick rate (ticks/s)
sim_freq                                 1000000000000                       # Frequency of simulated ticks
sim_insts                                    10000000                       # Number of instructions simulated
sim_ops                                      17911679                       # Number of ops (including micro ops) simulated
sim_seconds                                  0.002957                       # Number of seconds simulated
sim_ticks                                  2956809500                       # Number of ticks simulated
system.cpu.cc_regfile_reads                   4883816                       # number of cc regfile reads
system.cpu.cc_regfile_writes                  4254712                       # number of cc regfile writes
system.cpu.committedInsts                    10000000                       # Number of Instructions Simulated
system.cpu.committedOps                      17911679                       # Number of Ops (including micro ops) Simulated
system.cpu.cpi                               0.591362                       # CPI: Cycles Per Instruction
system.cpu.cpi_total                         0.591362                       # CPI: Total CPI of All Threads
system.cpu.fp_regfile_reads                  12294939                       # number of floating regfile reads
system.cpu.fp_regfile_writes                  6922551                       # number of floating regfile writes
system.cpu.idleCycles                          140854                       # Total number of cycles that the CPU has spent unscheduled due to idling
system.cpu.iew.branchMispredicts                18665                       # Number of branch mispredicts detected at execute
system.cpu.iew.exec_branches                  1115324                       # Number of branches executed
system.cpu.iew.exec_nop                             0                       # number of nop insts executed
system.cpu.iew.exec_rate                     3.097148                       # Inst execution rate
system.cpu.iew.exec_refs                      2788244                       # number of memory reference insts executed
system.cpu.iew.exec_stores                     485022                       # Number of stores executed
system.cpu.iew.exec_swp                             0                       # number of swp insts executed
system.cpu.iew.iewBlockCycles                  188193                       # Number of cycles IEW is blocking
system.cpu.iew.iewDispLoadInsts               2320624                       # Number of dispatched load instructions
system.cpu.iew.iewDispNonSpecInsts                 25                       # Number of dispatched non-speculative instructions
system.cpu.iew.iewDispSquashedInsts              1601                       # Number of squashed instructions skipped by dispatch
system.cpu.iew.iewDispStoreInsts               496435                       # Number of dispatched store instructions
system.cpu.iew.iewDispatchedInsts            18748209                       # Number of instructions dispatched to IQ
system.cpu.iew.iewExecLoadInsts               2303222                       # Number of load instructions executed
system.cpu.iew.iewExecSquashedInsts             23366                       # Number of squashed instructions skipped in execute
system.cpu.iew.iewExecutedInsts              18315355                       # Number of executed instructions
system.cpu.iew.iewIQFullEvents                   1288                       # Number of times the IQ has become full, causing a stall
system.cpu.iew.iewIdleCycles                        0                       # Number of cycles IEW is idle
system.cpu.iew.iewLSQFullEvents                 41353                       # Number of times the LSQ has become full, causing a stall
system.cpu.iew.iewSquashCycles                  16698                       # Number of cycles IEW is squashing
system.cpu.iew.iewUnblockCycles                 43195                       # Number of cycles IEW is unblocking
system.cpu.iew.memOrderViolationEvents            157                       # Number of memory order violations
system.cpu.iew.predictedNotTakenIncorrect        11191                       # Number of branches that were predicted not taken incorrectly
system.cpu.iew.predictedTakenIncorrect           7474                       # Number of branches that were predicted taken incorrectly
system.cpu.iew.wb_consumers                  25210013                       # num instructions consuming a value
system.cpu.iew.wb_count                      18300361                       # cumulative count of insts written-back
system.cpu.iew.wb_fanout                     0.570121                       # average fanout of values written-back
system.cpu.iew.wb_producers                  14372757                       # num instructions producing a value
system.cpu.iew.wb_rate                       3.094612                       # insts written-back per cycle
system.cpu.iew.wb_sent                       18306283                       # cumulative count of insts sent to commit
system.cpu.int_regfile_reads                 18752029                       # number of integer regfile reads
system.cpu.int_regfile_writes                 9700110                       # number of integer regfile writes
system.cpu.ipc                               1.691012                       # IPC: Instructions Per Cycle
system.cpu.ipc_total                         1.691012                       # IPC: Total IPC of All Threads
system.cpu.iq.FU_type_0::No_OpClass            317779      1.73%      1.73% # Type of FU issued
system.cpu.iq.FU_type_0::IntAlu               9887695     53.92%     55.65% # Type of FU issued
system.cpu.iq.FU_type_0::IntMult                 2102      0.01%     55.66% # Type of FU issued
system.cpu.iq.FU_type_0::IntDiv                106076      0.58%     56.24% # Type of FU issued
system.cpu.iq.FU_type_0::FloatAdd              424380      2.31%     58.55% # Type of FU issued
system.cpu.iq.FU_type_0::FloatCmp                   0      0.00%     58.55% # Type of FU issued
system.cpu.iq.FU_type_0::FloatCvt                  32      0.00%     58.55% # Type of FU issued
system.cpu.iq.FU_type_0::FloatMult                  0      0.00%     58.55% # Type of FU issued
system.cpu.iq.FU_type_0::FloatMultAcc               0      0.00%     58.55% # Type of FU issued
system.cpu.iq.FU_type_0::FloatDiv                   0      0.00%     58.55% # Type of FU issued
system.cpu.iq.FU_type_0::FloatMisc                  0      0.00%     58.55% # Type of FU issued
system.cpu.iq.FU_type_0::FloatSqrt                  0      0.00%     58.55% # Type of FU issued
system.cpu.iq.FU_type_0::SimdAdd                 2988      0.02%     58.57% # Type of FU issued
system.cpu.iq.FU_type_0::SimdAddAcc                 0      0.00%     58.57% # Type of FU issued
system.cpu.iq.FU_type_0::SimdAlu               851283      4.64%     63.21% # Type of FU issued
system.cpu.iq.FU_type_0::SimdCmp                   12      0.00%     63.21% # Type of FU issued
system.cpu.iq.FU_type_0::SimdCvt                 6993      0.04%     63.25% # Type of FU issued
system.cpu.iq.FU_type_0::SimdMisc              848273      4.63%     67.88% # Type of FU issued
system.cpu.iq.FU_type_0::SimdMult                  64      0.00%     67.88% # Type of FU issued
system.cpu.iq.FU_type_0::SimdMultAcc                0      0.00%     67.88% # Type of FU issued
system.cpu.iq.FU_type_0::SimdShift               2433      0.01%     67.89% # Type of FU issued
system.cpu.iq.FU_type_0::SimdShiftAcc               0      0.00%     67.89% # Type of FU issued
system.cpu.iq.FU_type_0::SimdDiv                    0      0.00%     67.89% # Type of FU issued
system.cpu.iq.FU_type_0::SimdSqrt                   0      0.00%     67.89% # Type of FU issued
system.cpu.iq.FU_type_0::SimdFloatAdd         1405591      7.66%     75.55% # Type of FU issued
system.cpu.iq.FU_type_0::SimdFloatAlu               0      0.00%     75.55% # Type of FU issued
system.cpu.iq.FU_type_0::SimdFloatCmp               0      0.00%     75.55% # Type of FU issued
system.cpu.iq.FU_type_0::SimdFloatCvt          702998      3.83%     79.39% # Type of FU issued
system.cpu.iq.FU_type_0::SimdFloatDiv               2      0.00%     79.39% # Type of FU issued
system.cpu.iq.FU_type_0::SimdFloatMisc              0      0.00%     79.39% # Type of FU issued
system.cpu.iq.FU_type_0::SimdFloatMult         984240      5.37%     84.75% # Type of FU issued
system.cpu.iq.FU_type_0::SimdFloatMultAcc            0      0.00%     84.75% # Type of FU issued
system.cpu.iq.FU_type_0::SimdFloatSqrt              0      0.00%     84.75% # Type of FU issued
system.cpu.iq.FU_type_0::SimdReduceAdd              0      0.00%     84.75% # Type of FU issued
system.cpu.iq.FU_type_0::SimdReduceAlu              0      0.00%     84.75% # Type of FU issued
system.cpu.iq.FU_type_0::SimdReduceCmp              0      0.00%     84.75% # Type of FU issued
system.cpu.iq.FU_type_0::SimdFloatReduceAdd            0      0.00%     84.75% # Type of FU issued
system.cpu.iq.FU_type_0::SimdFloatReduceCmp            0      0.00%     84.75% # Type of FU issued
system.cpu.iq.FU_type_0::SimdAes                    0      0.00%     84.75% # Type of FU issued
system.cpu.iq.FU_type_0::SimdAesMix                 0      0.00%     84.75% # Type of FU issued
system.cpu.iq.FU_type_0::SimdSha1Hash               0      0.00%     84.75% # Type of FU issued
system.cpu.iq.FU_type_0::SimdSha1Hash2              0      0.00%     84.75% # Type of FU issued
system.cpu.iq.FU_type_0::SimdSha256Hash             0      0.00%     84.75% # Type of FU issued
system.cpu.iq.FU_type_0::SimdSha256Hash2            0      0.00%     84.75% # Type of FU issued
system.cpu.iq.FU_type_0::SimdShaSigma2              0      0.00%     84.75% # Type of FU issued
system.cpu.iq.FU_type_0::SimdShaSigma3              0      0.00%     84.75% # Type of FU issued
system.cpu.iq.FU_type_0::SimdPredAlu                0      0.00%     84.75% # Type of FU issued
system.cpu.iq.FU_type_0::MemRead               752404      4.10%     88.86% # Type of FU issued
system.cpu.iq.FU_type_0::MemWrite              478623      2.61%     91.47% # Type of FU issued
system.cpu.iq.FU_type_0::FloatMemRead         1557144      8.49%     99.96% # Type of FU issued
system.cpu.iq.FU_type_0::FloatMemWrite           7611      0.04%    100.00% # Type of FU issued
system.cpu.iq.FU_type_0::IprAccess                  0      0.00%    100.00% # Type of FU issued
system.cpu.iq.FU_type_0::InstPrefetch               0      0.00%    100.00% # Type of FU issued
system.cpu.iq.FU_type_0::total               18338723                       # Type of FU issued
system.cpu.iq.fp_alu_accesses                 7357902                       # Number of floating point alu accesses
system.cpu.iq.fp_inst_queue_reads            14715612                       # Number of floating instruction queue reads
system.cpu.iq.fp_inst_queue_wakeup_accesses      7354379                       # Number of floating instruction queue wakeup accesses
system.cpu.iq.fp_inst_queue_writes            7403595                       # Number of floating instruction queue writes
system.cpu.iq.fu_busy_cnt                      159967                       # FU busy when requested
system.cpu.iq.fu_busy_rate                   0.008723                       # FU busy rate (busy events/executed inst)
system.cpu.iq.fu_full::No_OpClass                   0      0.00%      0.00% # attempts to use FU when none available
system.cpu.iq.fu_full::IntAlu                  157417     98.41%     98.41% # attempts to use FU when none available
system.cpu.iq.fu_full::IntMult                      0      0.00%     98.41% # attempts to use FU when none available
system.cpu.iq.fu_full::IntDiv                       0      0.00%     98.41% # attempts to use FU when none available
system.cpu.iq.fu_full::FloatAdd                     0      0.00%     98.41% # attempts to use FU when none available
system.cpu.iq.fu_full::FloatCmp                     0      0.00%     98.41% # attempts to use FU when none available
system.cpu.iq.fu_full::FloatCvt                     0      0.00%     98.41% # attempts to use FU when none available
system.cpu.iq.fu_full::FloatMult                    0      0.00%     98.41% # attempts to use FU when none available
system.cpu.iq.fu_full::FloatMultAcc                 0      0.00%     98.41% # attempts to use FU when none available
system.cpu.iq.fu_full::FloatDiv                     0      0.00%     98.41% # attempts to use FU when none available
system.cpu.iq.fu_full::FloatMisc                    0      0.00%     98.41% # attempts to use FU when none available
system.cpu.iq.fu_full::FloatSqrt                    0      0.00%     98.41% # attempts to use FU when none available
system.cpu.iq.fu_full::SimdAdd                      0      0.00%     98.41% # attempts to use FU when none available
system.cpu.iq.fu_full::SimdAddAcc                   0      0.00%     98.41% # attempts to use FU when none available
system.cpu.iq.fu_full::SimdAlu                     79      0.05%     98.46% # attempts to use FU when none available
system.cpu.iq.fu_full::SimdCmp                      0      0.00%     98.46% # attempts to use FU when none available
system.cpu.iq.fu_full::SimdCvt                     15      0.01%     98.46% # attempts to use FU when none available
system.cpu.iq.fu_full::SimdMisc                    12      0.01%     98.47% # attempts to use FU when none available
system.cpu.iq.fu_full::SimdMult                     0      0.00%     98.47% # attempts to use FU when none available
system.cpu.iq.fu_full::SimdMultAcc                  0      0.00%     98.47% # attempts to use FU when none available
system.cpu.iq.fu_full::SimdShift                   47      0.03%     98.50% # attempts to use FU when none available
system.cpu.iq.fu_full::SimdShiftAcc                 0      0.00%     98.50% # attempts to use FU when none available
system.cpu.iq.fu_full::SimdDiv                      0      0.00%     98.50% # attempts to use FU when none available
system.cpu.iq.fu_full::SimdSqrt                     0      0.00%     98.50% # attempts to use FU when none available
system.cpu.iq.fu_full::SimdFloatAdd                 0      0.00%     98.50% # attempts to use FU when none available
system.cpu.iq.fu_full::SimdFloatAlu                 0      0.00%     98.50% # attempts to use FU when none available
system.cpu.iq.fu_full::SimdFloatCmp                 0      0.00%     98.50% # attempts to use FU when none available
system.cpu.iq.fu_full::SimdFloatCvt                 0      0.00%     98.50% # attempts to use FU when none available
system.cpu.iq.fu_full::SimdFloatDiv                 0      0.00%     98.50% # attempts to use FU when none available
system.cpu.iq.fu_full::SimdFloatMisc                0      0.00%     98.50% # attempts to use FU when none available
system.cpu.iq.fu_full::SimdFloatMult                0      0.00%     98.50% # attempts to use FU when none available
system.cpu.iq.fu_full::SimdFloatMultAcc             0      0.00%     98.50% # attempts to use FU when none available
system.cpu.iq.fu_full::SimdFloatSqrt                0      0.00%     98.50% # attempts to use FU when none available
system.cpu.iq.fu_full::SimdReduceAdd                0      0.00%     98.50% # attempts to use FU when none available
system.cpu.iq.fu_full::SimdReduceAlu                0      0.00%     98.50% # attempts to use FU when none available
system.cpu.iq.fu_full::SimdReduceCmp                0      0.00%     98.50% # attempts to use FU when none available
system.cpu.iq.fu_full::SimdFloatReduceAdd            0      0.00%     98.50% # attempts to use FU when none available
system.cpu.iq.fu_full::SimdFloatReduceCmp            0      0.00%     98.50% # attempts to use FU when none available
system.cpu.iq.fu_full::SimdAes                      0      0.00%     98.50% # attempts to use FU when none available
system.cpu.iq.fu_full::SimdAesMix                   0      0.00%     98.50% # attempts to use FU when none available
system.cpu.iq.fu_full::SimdSha1Hash                 0      0.00%     98.50% # attempts to use FU when none available
system.cpu.iq.fu_full::SimdSha1Hash2                0      0.00%     98.50% # attempts to use FU when none available
system.cpu.iq.fu_full::SimdSha256Hash               0      0.00%     98.50% # attempts to use FU when none available
system.cpu.iq.fu_full::SimdSha256Hash2              0      0.00%     98.50% # attempts to use FU when none available
system.cpu.iq.fu_full::SimdShaSigma2                0      0.00%     98.50% # attempts to use FU when none available
system.cpu.iq.fu_full::SimdShaSigma3                0      0.00%     98.50% # attempts to use FU when none available
system.cpu.iq.fu_full::SimdPredAlu                  0      0.00%     98.50% # attempts to use FU when none available
system.cpu.iq.fu_full::MemRead                   1388      0.87%     99.37% # attempts to use FU when none available
system.cpu.iq.fu_full::MemWrite                   803      0.50%     99.87% # attempts to use FU when none available
system.cpu.iq.fu_full::FloatMemRead                72      0.05%     99.92% # attempts to use FU when none available
system.cpu.iq.fu_full::FloatMemWrite              134      0.08%    100.00% # attempts to use FU when none available
system.cpu.iq.fu_full::IprAccess                    0      0.00%    100.00% # attempts to use FU when none available
system.cpu.iq.fu_full::InstPrefetch                 0      0.00%    100.00% # attempts to use FU when none available
system.cpu.iq.int_alu_accesses               10823009                       # Number of integer alu accesses
system.cpu.iq.int_inst_queue_reads           27897064                       # Number of integer instruction queue reads
system.cpu.iq.int_inst_queue_wakeup_accesses     10945982                       # Number of integer instruction queue wakeup accesses
system.cpu.iq.int_inst_queue_writes          12181169                       # Number of integer instruction queue writes
system.cpu.iq.iqInstsAdded                   18748176                       # Number of instructions added to the IQ (excludes non-spec)
system.cpu.iq.iqInstsIssued                  18338723                       # Number of instructions issued
system.cpu.iq.iqNonSpecInstsAdded                  33                       # Number of non-speculative instructions added to the IQ
system.cpu.iq.iqSquashedInstsExamined          836412                       # Number of squashed instructions iterated over during squash; mainly for profiling
system.cpu.iq.iqSquashedInstsIssued              2499                       # Number of squashed instructions issued
system.cpu.iq.iqSquashedNonSpecRemoved             15                       # Number of squashed non-spec instructions that were removed
system.cpu.iq.iqSquashedOperandsExamined      1830964                       # Number of squashed operands that are examined and possibly removed from graph
system.cpu.iq.issued_per_cycle::samples       5772766                       # Number of insts issued each cycle
system.cpu.iq.issued_per_cycle::mean         3.176765                       # Number of insts issued each cycle
system.cpu.iq.issued_per_cycle::stdev        2.116056                       # Number of insts issued each cycle
system.cpu.iq.issued_per_cycle::underflows            0      0.00%      0.00% # Number of insts issued each cycle
system.cpu.iq.issued_per_cycle::0              619079     10.72%     10.72% # Number of insts issued each cycle
system.cpu.iq.issued_per_cycle::1              760941     13.18%     23.91% # Number of insts issued each cycle
system.cpu.iq.issued_per_cycle::2             1102804     19.10%     43.01% # Number of insts issued each cycle
system.cpu.iq.issued_per_cycle::3              901314     15.61%     58.62% # Number of insts issued each cycle
system.cpu.iq.issued_per_cycle::4              876870     15.19%     73.81% # Number of insts issued each cycle
system.cpu.iq.issued_per_cycle::5              481311      8.34%     82.15% # Number of insts issued each cycle
system.cpu.iq.issued_per_cycle::6              575950      9.98%     92.13% # Number of insts issued each cycle
system.cpu.iq.issued_per_cycle::7              337479      5.85%     97.97% # Number of insts issued each cycle
system.cpu.iq.issued_per_cycle::8              117018      2.03%    100.00% # Number of insts issued each cycle
system.cpu.iq.issued_per_cycle::overflows            0      0.00%    100.00% # Number of insts issued each cycle
system.cpu.iq.issued_per_cycle::min_value            0                       # Number of insts issued each cycle
system.cpu.iq.issued_per_cycle::max_value            8                       # Number of insts issued each cycle
system.cpu.iq.issued_per_cycle::total         5772766                       # Number of insts issued each cycle
system.cpu.iq.rate                           3.101099                       # Inst issue rate
system.cpu.iq.vec_alu_accesses                      0                       # Number of vector alu accesses
system.cpu.iq.vec_inst_queue_reads                  0                       # Number of vector instruction queue reads
system.cpu.iq.vec_inst_queue_wakeup_accesses            0                       # Number of vector instruction queue wakeup accesses
system.cpu.iq.vec_inst_queue_writes                 0                       # Number of vector instruction queue writes
system.cpu.memDep0.conflictingLoads              3747                       # Number of conflicting loads.
system.cpu.memDep0.conflictingStores             1145                       # Number of conflicting stores.
system.cpu.memDep0.insertedLoads              2320624                       # Number of loads inserted to the mem dependence unit.
system.cpu.memDep0.insertedStores              496435                       # Number of stores inserted to the mem dependence unit.
system.cpu.misc_regfile_reads                 6129019                       # number of misc regfile reads
system.cpu.misc_regfile_writes                     18                       # number of misc regfile writes
system.cpu.numCycles                          5913620                       # number of cpu cycles simulated
system.cpu.numWorkItemsCompleted                    0                       # number of work items this cpu completed
system.cpu.numWorkItemsStarted                      0                       # number of work items this cpu started
system.cpu.timesIdled                            1559                       # Number of times that the entire CPU went into an idle state and unscheduled itself
system.cpu.workload.numSyscalls                    57                       # Number of system calls
system.membus.snoop_filter.hit_multi_requests            0                       # Number of requests hitting in the snoop filter with multiple (>1) holders of the requested data.
system.membus.snoop_filter.hit_multi_snoops            0                       # Number of snoops hitting in the snoop filter with multiple (>1) holders of the requested data.
system.membus.snoop_filter.hit_single_requests         6471                       # Number of requests hitting in the snoop filter with a single holder of the requested data.
system.membus.snoop_filter.hit_single_snoops            0                       # Number of snoops hitting in the snoop filter with a single holder of the requested data.
system.membus.snoop_filter.tot_requests         21645                       # Total number of requests made to the snoop filter.
system.membus.snoop_filter.tot_snoops               0                       # Total number of snoops made to the snoop filter.
system.tol2bus.snoop_filter.hit_multi_requests           12                       # Number of requests hitting in the snoop filter with multiple (>1) holders of the requested data.
system.tol2bus.snoop_filter.hit_multi_snoops            0                       # Number of snoops hitting in the snoop filter with multiple (>1) holders of the requested data.
system.tol2bus.snoop_filter.hit_single_requests        16329                       # Number of requests hitting in the snoop filter with a single holder of the requested data.
system.tol2bus.snoop_filter.hit_single_snoops          515                       # Number of snoops hitting in the snoop filter with a single holder of the requested data.
system.tol2bus.snoop_filter.tot_requests        33681                       # Total number of requests made to the snoop filter.
system.tol2bus.snoop_filter.tot_snoops            515                       # Total number of snoops made to the snoop filter.
system.clk_domain.clock                           250                       # Clock period in ticks
system.cpu.branchPred.lookups                 1225477                       # Number of BP lookups
system.cpu.branchPred.condPredicted            773213                       # Number of conditional branches predicted
system.cpu.branchPred.condIncorrect             17330                       # Number of conditional branches incorrect
system.cpu.branchPred.BTBLookups               405552                       # Number of BTB lookups
system.cpu.branchPred.BTBHits                  395072                       # Number of BTB hits
system.cpu.branchPred.BTBHitPct             97.415868                       # BTB Hit Percentage
system.cpu.branchPred.RASUsed                  145138                       # Number of times the RAS was used to get a target.
system.cpu.branchPred.RASIncorrect                  5                       # Number of incorrect RAS predictions.
system.cpu.branchPred.indirectLookups          149345                       # Number of indirect predictor lookups.
system.cpu.branchPred.indirectHits             141920                       # Number of indirect target hits.
system.cpu.branchPred.indirectMisses             7425                       # Number of indirect misses.
system.cpu.branchPred.indirectMispredicted         1194                       # Number of mispredicted indirect branches.
system.cpu.commit.commitSquashedInsts          826896                       # The number of squashed insts skipped by commit
system.cpu.commit.commitNonSpecStalls              18                       # The number of times commit has been forced to stall to communicate backwards
system.cpu.commit.branchMispredicts             16211                       # The number of times a branch was mispredicted
system.cpu.commit.numCommittedDist::samples      5657816                       # Number of insts commited each cycle
system.cpu.commit.numCommittedDist::mean     3.165829                       # Number of insts commited each cycle
system.cpu.commit.numCommittedDist::stdev     2.892198                       # Number of insts commited each cycle
system.cpu.commit.numCommittedDist::underflows            0      0.00%      0.00% # Number of insts commited each cycle
system.cpu.commit.numCommittedDist::0          857721     15.16%     15.16% # Number of insts commited each cycle
system.cpu.commit.numCommittedDist::1         1626947     28.76%     43.92% # Number of insts commited each cycle
system.cpu.commit.numCommittedDist::2          750525     13.27%     57.18% # Number of insts commited each cycle
system.cpu.commit.numCommittedDist::3          466849      8.25%     65.43% # Number of insts commited each cycle
system.cpu.commit.numCommittedDist::4          156767      2.77%     68.20% # Number of insts commited each cycle
system.cpu.commit.numCommittedDist::5          297058      5.25%     73.45% # Number of insts commited each cycle
system.cpu.commit.numCommittedDist::6          156973      2.77%     76.23% # Number of insts commited each cycle
system.cpu.commit.numCommittedDist::7          430869      7.62%     83.84% # Number of insts commited each cycle
system.cpu.commit.numCommittedDist::8          914107     16.16%    100.00% # Number of insts commited each cycle
system.cpu.commit.numCommittedDist::overflows            0      0.00%    100.00% # Number of insts commited each cycle
system.cpu.commit.numCommittedDist::min_value            0                       # Number of insts commited each cycle
system.cpu.commit.numCommittedDist::max_value            8                       # Number of insts commited each cycle
system.cpu.commit.numCommittedDist::total      5657816                       # Number of insts commited each cycle
system.cpu.commit.instsCommitted             10000000                       # Number of instructions committed
system.cpu.commit.opsCommitted               17911679                       # Number of ops (including micro ops) committed
system.cpu.commit.memRefs                     2712967                       # Number of memory references committed
system.cpu.commit.loads                       2242684                       # Number of loads committed
system.cpu.commit.amos                              0                       # Number of atomic instructions committed
system.cpu.commit.membars                           0                       # Number of memory barriers committed
system.cpu.commit.branches                    1090188                       # Number of branches committed
system.cpu.commit.vector                            0                       # Number of committed Vector instructions.
system.cpu.commit.floating                    7334339                       # Number of committed floating point instructions.
system.cpu.commit.integer                    12675584                       # Number of committed integer instructions.
system.cpu.commit.functionCalls                142859                       # Number of function calls committed.
system.cpu.commit.committedInstType_0::No_OpClass       304874      1.70%      1.70% # Class of committed instruction
system.cpu.commit.committedInstType_0::IntAlu      9580380     53.49%     55.19% # Class of committed instruction
system.cpu.commit.committedInstType_0::IntMult         1379      0.01%     55.20% # Class of committed instruction
system.cpu.commit.committedInstType_0::IntDiv        97485      0.54%     55.74% # Class of committed instruction
system.cpu.commit.committedInstType_0::FloatAdd       422338      2.36%     58.10% # Class of committed instruction
system.cpu.commit.committedInstType_0::FloatCmp            0      0.00%     58.10% # Class of committed instruction
system.cpu.commit.committedInstType_0::FloatCvt           32      0.00%     58.10% # Class of committed instruction
system.cpu.commit.committedInstType_0::FloatMult            0      0.00%     58.10% # Class of committed instruction
system.cpu.commit.committedInstType_0::FloatMultAcc            0      0.00%     58.10% # Class of committed instruction
system.cpu.commit.committedInstType_0::FloatDiv            0      0.00%     58.10% # Class of committed instruction
system.cpu.commit.committedInstType_0::FloatMisc            0      0.00%     58.10% # Class of committed instruction
system.cpu.commit.committedInstType_0::FloatSqrt            0      0.00%     58.10% # Class of committed instruction
system.cpu.commit.committedInstType_0::SimdAdd         2262      0.01%     58.11% # Class of committed instruction
system.cpu.commit.committedInstType_0::SimdAddAcc            0      0.00%     58.11% # Class of committed instruction
system.cpu.commit.committedInstType_0::SimdAlu       846514      4.73%     62.84% # Class of committed instruction
system.cpu.commit.committedInstType_0::SimdCmp           12      0.00%     62.84% # Class of committed instruction
system.cpu.commit.committedInstType_0::SimdCvt         4818      0.03%     62.86% # Class of committed instruction
system.cpu.commit.committedInstType_0::SimdMisc       846633      4.73%     67.59% # Class of committed instruction
system.cpu.commit.committedInstType_0::SimdMult           64      0.00%     67.59% # Class of committed instruction
system.cpu.commit.committedInstType_0::SimdMultAcc            0      0.00%     67.59% # Class of committed instruction
system.cpu.commit.committedInstType_0::SimdShift          884      0.00%     67.60% # Class of committed instruction
system.cpu.commit.committedInstType_0::SimdShiftAcc            0      0.00%     67.60% # Class of committed instruction
system.cpu.commit.committedInstType_0::SimdDiv            0      0.00%     67.60% # Class of committed instruction
system.cpu.commit.committedInstType_0::SimdSqrt            0      0.00%     67.60% # Class of committed instruction
system.cpu.commit.committedInstType_0::SimdFloatAdd      1405003      7.84%     75.44% # Class of committed instruction
system.cpu.commit.committedInstType_0::SimdFloatAlu            0      0.00%     75.44% # Class of committed instruction
system.cpu.commit.committedInstType_0::SimdFloatCmp            0      0.00%     75.44% # Class of committed instruction
system.cpu.commit.committedInstType_0::SimdFloatCvt       702543      3.92%     79.36% # Class of committed instruction
system.cpu.commit.committedInstType_0::SimdFloatDiv            2      0.00%     79.36% # Class of committed instruction
system.cpu.commit.committedInstType_0::SimdFloatMisc            0      0.00%     79.36% # Class of committed instruction
system.cpu.commit.committedInstType_0::SimdFloatMult       983489      5.49%     84.85% # Class of committed instruction
system.cpu.commit.committedInstType_0::SimdFloatMultAcc            0      0.00%     84.85% # Class of committed instruction
system.cpu.commit.committedInstType_0::SimdFloatSqrt            0      0.00%     84.85% # Class of committed instruction
system.cpu.commit.committedInstType_0::SimdReduceAdd            0      0.00%     84.85% # Class of committed instruction
system.cpu.commit.committedInstType_0::SimdReduceAlu            0      0.00%     84.85% # Class of committed instruction
system.cpu.commit.committedInstType_0::SimdReduceCmp            0      0.00%     84.85% # Class of committed instruction
system.cpu.commit.committedInstType_0::SimdFloatReduceAdd            0      0.00%     84.85% # Class of committed instruction
system.cpu.commit.committedInstType_0::SimdFloatReduceCmp            0      0.00%     84.85% # Class of committed instruction
system.cpu.commit.committedInstType_0::SimdAes            0      0.00%     84.85% # Class of committed instruction
system.cpu.commit.committedInstType_0::SimdAesMix            0      0.00%     84.85% # Class of committed instruction
system.cpu.commit.committedInstType_0::SimdSha1Hash            0      0.00%     84.85% # Class of committed instruction
system.cpu.commit.committedInstType_0::SimdSha1Hash2            0      0.00%     84.85% # Class of committed instruction
system.cpu.commit.committedInstType_0::SimdSha256Hash            0      0.00%     84.85% # Class of committed instruction
system.cpu.commit.committedInstType_0::SimdSha256Hash2            0      0.00%     84.85% # Class of committed instruction
system.cpu.commit.committedInstType_0::SimdShaSigma2            0      0.00%     84.85% # Class of committed instruction
system.cpu.commit.committedInstType_0::SimdShaSigma3            0      0.00%     84.85% # Class of committed instruction
system.cpu.commit.committedInstType_0::SimdPredAlu            0      0.00%     84.85% # Class of committed instruction
system.cpu.commit.committedInstType_0::MemRead       692034      3.86%     88.72% # Class of committed instruction
system.cpu.commit.committedInstType_0::MemWrite       463876      2.59%     91.31% # Class of committed instruction
system.cpu.commit.committedInstType_0::FloatMemRead      1550650      8.66%     99.96% # Class of committed instruction
system.cpu.commit.committedInstType_0::FloatMemWrite         6407      0.04%    100.00% # Class of committed instruction
system.cpu.commit.committedInstType_0::IprAccess            0      0.00%    100.00% # Class of committed instruction
system.cpu.commit.committedInstType_0::InstPrefetch            0      0.00%    100.00% # Class of committed instruction
system.cpu.commit.committedInstType_0::total     17911679                       # Class of committed instruction
system.cpu.commit.commitEligibleSamples        914107                       # number cycles where commit BW limit reached
system.cpu.dcache.demand_hits::.cpu.data      2597378                       # number of demand (read+write) hits
system.cpu.dcache.demand_hits::total          2597378                       # number of demand (read+write) hits
system.cpu.dcache.overall_hits::.cpu.data      2597378                       # number of overall hits
system.cpu.dcache.overall_hits::total         2597378                       # number of overall hits
system.cpu.dcache.demand_misses::.cpu.data        26603                       # number of demand (read+write) misses
system.cpu.dcache.demand_misses::total          26603                       # number of demand (read+write) misses
system.cpu.dcache.overall_misses::.cpu.data        26603                       # number of overall misses
system.cpu.dcache.overall_misses::total         26603                       # number of overall misses
system.cpu.dcache.demand_miss_latency::.cpu.data   1560408997                       # number of demand (read+write) miss cycles
system.cpu.dcache.demand_miss_latency::total   1560408997                       # number of demand (read+write) miss cycles
system.cpu.dcache.overall_miss_latency::.cpu.data   1560408997                       # number of overall miss cycles
system.cpu.dcache.overall_miss_latency::total   1560408997                       # number of overall miss cycles
system.cpu.dcache.demand_accesses::.cpu.data      2623981                       # number of demand (read+write) accesses
system.cpu.dcache.demand_accesses::total      2623981                       # number of demand (read+write) accesses
system.cpu.dcache.overall_accesses::.cpu.data      2623981                       # number of overall (read+write) accesses
system.cpu.dcache.overall_accesses::total      2623981                       # number of overall (read+write) accesses
system.cpu.dcache.demand_miss_rate::.cpu.data     0.010138                       # miss rate for demand accesses
system.cpu.dcache.demand_miss_rate::total     0.010138                       # miss rate for demand accesses
system.cpu.dcache.overall_miss_rate::.cpu.data     0.010138                       # miss rate for overall accesses
system.cpu.dcache.overall_miss_rate::total     0.010138                       # miss rate for overall accesses
system.cpu.dcache.demand_avg_miss_latency::.cpu.data 58655.377100                       # average overall miss latency
system.cpu.dcache.demand_avg_miss_latency::total 58655.377100                       # average overall miss latency
system.cpu.dcache.overall_avg_miss_latency::.cpu.data 58655.377100                       # average overall miss latency
system.cpu.dcache.overall_avg_miss_latency::total 58655.377100                       # average overall miss latency
system.cpu.dcache.blocked_cycles::no_mshrs        19920                       # number of cycles access was blocked
system.cpu.dcache.blocked_cycles::no_targets            4                       # number of cycles access was blocked
system.cpu.dcache.blocked::no_mshrs               509                       # number of cycles access was blocked
system.cpu.dcache.blocked::no_targets               1                       # number of cycles access was blocked
system.cpu.dcache.avg_blocked_cycles::no_mshrs    39.135560                       # average number of cycles each access was blocked
system.cpu.dcache.avg_blocked_cycles::no_targets            4                       # average number of cycles each access was blocked
system.cpu.dcache.writebacks::.writebacks        11023                       # number of writebacks
system.cpu.dcache.writebacks::total             11023                       # number of writebacks
system.cpu.dcache.demand_mshr_hits::.cpu.data        11870                       # number of demand (read+write) MSHR hits
system.cpu.dcache.demand_mshr_hits::total        11870                       # number of demand (read+write) MSHR hits
system.cpu.dcache.overall_mshr_hits::.cpu.data        11870                       # number of overall MSHR hits
system.cpu.dcache.overall_mshr_hits::total        11870                       # number of overall MSHR hits
system.cpu.dcache.demand_mshr_misses::.cpu.data        14733                       # number of demand (read+write) MSHR misses
system.cpu.dcache.demand_mshr_misses::total        14733                       # number of demand (read+write) MSHR misses
system.cpu.dcache.overall_mshr_misses::.cpu.data        14733                       # number of overall MSHR misses
system.cpu.dcache.overall_mshr_misses::total        14733                       # number of overall MSHR misses
system.cpu.dcache.demand_mshr_miss_latency::.cpu.data    947142497                       # number of demand (read+write) MSHR miss cycles
system.cpu.dcache.demand_mshr_miss_latency::total    947142497                       # number of demand (read+write) MSHR miss cycles
system.cpu.dcache.overall_mshr_miss_latency::.cpu.data    947142497                       # number of overall MSHR miss cycles
system.cpu.dcache.overall_mshr_miss_latency::total    947142497                       # number of overall MSHR miss cycles
system.cpu.dcache.demand_mshr_miss_rate::.cpu.data     0.005615                       # mshr miss rate for demand accesses
system.cpu.dcache.demand_mshr_miss_rate::total     0.005615                       # mshr miss rate for demand accesses
system.cpu.dcache.overall_mshr_miss_rate::.cpu.data     0.005615                       # mshr miss rate for overall accesses
system.cpu.dcache.overall_mshr_miss_rate::total     0.005615                       # mshr miss rate for overall accesses
system.cpu.dcache.demand_avg_mshr_miss_latency::.cpu.data 64287.144302                       # average overall mshr miss latency
system.cpu.dcache.demand_avg_mshr_miss_latency::total 64287.144302                       # average overall mshr miss latency
system.cpu.dcache.overall_avg_mshr_miss_latency::.cpu.data 64287.144302                       # average overall mshr miss latency
system.cpu.dcache.overall_avg_mshr_miss_latency::total 64287.144302                       # average overall mshr miss latency
system.cpu.dcache.replacements                  14221                       # number of replacements
system.cpu.dcache.ReadReq_hits::.cpu.data      2137782                       # number of ReadReq hits
system.cpu.dcache.ReadReq_hits::total         2137782                       # number of ReadReq hits
system.cpu.dcache.ReadReq_misses::.cpu.data        15894                       # number of ReadReq misses
system.cpu.dcache.ReadReq_misses::total         15894                       # number of ReadReq misses
system.cpu.dcache.ReadReq_miss_latency::.cpu.data    808032000                       # number of ReadReq miss cycles
system.cpu.dcache.ReadReq_miss_latency::total    808032000                       # number of ReadReq miss cycles
system.cpu.dcache.ReadReq_accesses::.cpu.data      2153676                       # number of ReadReq accesses(hits+misses)
system.cpu.dcache.ReadReq_accesses::total      2153676                       # number of ReadReq accesses(hits+misses)
system.cpu.dcache.ReadReq_miss_rate::.cpu.data     0.007380                       # miss rate for ReadReq accesses
system.cpu.dcache.ReadReq_miss_rate::total     0.007380                       # miss rate for ReadReq accesses
system.cpu.dcache.ReadReq_avg_miss_latency::.cpu.data 50838.807097                       # average ReadReq miss latency
system.cpu.dcache.ReadReq_avg_miss_latency::total 50838.807097                       # average ReadReq miss latency
system.cpu.dcache.ReadReq_mshr_hits::.cpu.data        11865                       # number of ReadReq MSHR hits
system.cpu.dcache.ReadReq_mshr_hits::total        11865                       # number of ReadReq MSHR hits
system.cpu.dcache.ReadReq_mshr_misses::.cpu.data         4029                       # number of ReadReq MSHR misses
system.cpu.dcache.ReadReq_mshr_misses::total         4029                       # number of ReadReq MSHR misses
system.cpu.dcache.ReadReq_mshr_miss_latency::.cpu.data    205723500                       # number of ReadReq MSHR miss cycles
system.cpu.dcache.ReadReq_mshr_miss_latency::total    205723500                       # number of ReadReq MSHR miss cycles
system.cpu.dcache.ReadReq_mshr_miss_rate::.cpu.data     0.001871                       # mshr miss rate for ReadReq accesses
system.cpu.dcache.ReadReq_mshr_miss_rate::total     0.001871                       # mshr miss rate for ReadReq accesses
system.cpu.dcache.ReadReq_avg_mshr_miss_latency::.cpu.data 51060.685034                       # average ReadReq mshr miss latency
system.cpu.dcache.ReadReq_avg_mshr_miss_latency::total 51060.685034                       # average ReadReq mshr miss latency
system.cpu.dcache.WriteReq_hits::.cpu.data       459596                       # number of WriteReq hits
system.cpu.dcache.WriteReq_hits::total         459596                       # number of WriteReq hits
system.cpu.dcache.WriteReq_misses::.cpu.data        10709                       # number of WriteReq misses
system.cpu.dcache.WriteReq_misses::total        10709                       # number of WriteReq misses
system.cpu.dcache.WriteReq_miss_latency::.cpu.data    752376997                       # number of WriteReq miss cycles
system.cpu.dcache.WriteReq_miss_latency::total    752376997                       # number of WriteReq miss cycles
system.cpu.dcache.WriteReq_accesses::.cpu.data       470305                       # number of WriteReq accesses(hits+misses)
system.cpu.dcache.WriteReq_accesses::total       470305                       # number of WriteReq accesses(hits+misses)
system.cpu.dcache.WriteReq_miss_rate::.cpu.data     0.022770                       # miss rate for WriteReq accesses
system.cpu.dcache.WriteReq_miss_rate::total     0.022770                       # miss rate for WriteReq accesses
system.cpu.dcache.WriteReq_avg_miss_latency::.cpu.data 70256.512933                       # average WriteReq miss latency
system.cpu.dcache.WriteReq_avg_miss_latency::total 70256.512933                       # average WriteReq miss latency
system.cpu.dcache.WriteReq_mshr_hits::.cpu.data            5                       # number of WriteReq MSHR hits
system.cpu.dcache.WriteReq_mshr_hits::total            5                       # number of WriteReq MSHR hits
system.cpu.dcache.WriteReq_mshr_misses::.cpu.data        10704                       # number of WriteReq MSHR misses
system.cpu.dcache.WriteReq_mshr_misses::total        10704                       # number of WriteReq MSHR misses
system.cpu.dcache.WriteReq_mshr_miss_latency::.cpu.data    741418997                       # number of WriteReq MSHR miss cycles
system.cpu.dcache.WriteReq_mshr_miss_latency::total    741418997                       # number of WriteReq MSHR miss cycles
system.cpu.dcache.WriteReq_mshr_miss_rate::.cpu.data     0.022760                       # mshr miss rate for WriteReq accesses
system.cpu.dcache.WriteReq_mshr_miss_rate::total     0.022760                       # mshr miss rate for WriteReq accesses
system.cpu.dcache.WriteReq_avg_mshr_miss_latency::.cpu.data 69265.601364                       # average WriteReq mshr miss latency
system.cpu.dcache.WriteReq_avg_mshr_miss_latency::total 69265.601364                       # average WriteReq mshr miss latency
system.cpu.dcache.power_state.pwrStateResidencyTicks::UNDEFINED   2956809500                       # Cumulative time (in ticks) in various power states
system.cpu.dcache.tags.tagsinuse           506.579430                       # Cycle average of tags in use
system.cpu.dcache.tags.total_refs             2612111                       # Total number of references to valid blocks.
system.cpu.dcache.tags.sampled_refs             14733                       # Sample count of references to valid blocks.
system.cpu.dcache.tags.avg_refs            177.296613                       # Average number of references to valid blocks.
system.cpu.dcache.tags.warmup_cycle            163000                       # Cycle when the warmup percentage was hit.
system.cpu.dcache.tags.occ_blocks::.cpu.data   506.579430                       # Average occupied blocks per requestor
system.cpu.dcache.tags.occ_percent::.cpu.data     0.989413                       # Average percentage of cache occupancy
system.cpu.dcache.tags.occ_percent::total     0.989413                       # Average percentage of cache occupancy
system.cpu.dcache.tags.occ_task_id_blocks::1024          512                       # Occupied blocks per task id
system.cpu.dcache.tags.age_task_id_blocks_1024::0           38                       # Occupied blocks per task id
system.cpu.dcache.tags.age_task_id_blocks_1024::1          326                       # Occupied blocks per task id
system.cpu.dcache.tags.age_task_id_blocks_1024::2          140                       # Occupied blocks per task id
system.cpu.dcache.tags.age_task_id_blocks_1024::3            8                       # Occupied blocks per task id
system.cpu.dcache.tags.occ_task_id_percent::1024            1                       # Percentage of cache occupancy per task id
system.cpu.dcache.tags.tag_accesses           5262695                       # Number of tag accesses
system.cpu.dcache.tags.data_accesses          5262695                       # Number of data accesses
system.cpu.dcache.tags.power_state.pwrStateResidencyTicks::UNDEFINED   2956809500                       # Cumulative time (in ticks) in various power states
system.cpu.decode.idleCycles                   711808                       # Number of cycles decode is idle
system.cpu.decode.blockedCycles               2639301                       # Number of cycles decode is blocked
system.cpu.decode.runCycles                   1100487                       # Number of cycles decode is running
system.cpu.decode.unblockCycles               1304472                       # Number of cycles decode is unblocking
system.cpu.decode.squashCycles                  16698                       # Number of cycles decode is squashing
system.cpu.decode.branchResolved               377785                       # Number of times decode resolved a  branch
system.cpu.decode.branchMispred                  1583                       # Number of times decode detected a branch misprediction
system.cpu.decode.decodedInsts               18942979                       # Number of instructions handled by decode
system.cpu.decode.squashedInsts                  7592                       # Number of squashed instructions handled by decode
system.cpu.dtb.rdAccesses                     2302335                       # TLB accesses on read requests
system.cpu.dtb.wrAccesses                      485049                       # TLB accesses on write requests
system.cpu.dtb.rdMisses                           608                       # TLB misses on read requests
system.cpu.dtb.wrMisses                           681                       # TLB misses on write requests
system.cpu.dtb.walker.power_state.pwrStateResidencyTicks::UNDEFINED   2956809500                       # Cumulative time (in ticks) in various power states
system.cpu.dtb_walker_cache.blocked_cycles::no_mshrs            0                       # number of cycles access was blocked
system.cpu.dtb_walker_cache.blocked_cycles::no_targets            0                       # number of cycles access was blocked
system.cpu.dtb_walker_cache.blocked::no_mshrs            0                       # number of cycles access was blocked
system.cpu.dtb_walker_cache.blocked::no_targets            0                       # number of cycles access was blocked
system.cpu.dtb_walker_cache.avg_blocked_cycles::no_mshrs          nan                       # average number of cycles each access was blocked
system.cpu.dtb_walker_cache.avg_blocked_cycles::no_targets          nan                       # average number of cycles each access was blocked
system.cpu.dtb_walker_cache.replacements            0                       # number of replacements
system.cpu.dtb_walker_cache.power_state.pwrStateResidencyTicks::UNDEFINED   2956809500                       # Cumulative time (in ticks) in various power states
system.cpu.dtb_walker_cache.tags.tagsinuse            0                       # Cycle average of tags in use
system.cpu.dtb_walker_cache.tags.total_refs            0                       # Total number of references to valid blocks.
system.cpu.dtb_walker_cache.tags.sampled_refs            0                       # Sample count of references to valid blocks.
system.cpu.dtb_walker_cache.tags.avg_refs          nan                       # Average number of references to valid blocks.
system.cpu.dtb_walker_cache.tags.warmup_cycle            0                       # Cycle when the warmup percentage was hit.
system.cpu.dtb_walker_cache.tags.tag_accesses            0                       # Number of tag accesses
system.cpu.dtb_walker_cache.tags.data_accesses            0                       # Number of data accesses
system.cpu.dtb_walker_cache.tags.power_state.pwrStateResidencyTicks::UNDEFINED   2956809500                       # Cumulative time (in ticks) in various power states
system.cpu.fetch.icacheStallCycles            1329361                       # Number of cycles fetch is stalled on an Icache miss
system.cpu.fetch.insts                       10512266                       # Number of instructions fetch has processed
system.cpu.fetch.branches                     1225477                       # Number of branches that fetch encountered
system.cpu.fetch.predictedBranches             682130                       # Number of branches that fetch has predicted taken
system.cpu.fetch.cycles                       4421159                       # Number of cycles fetch has run and was not squashing or blocked
system.cpu.fetch.squashCycles                   36496                       # Number of cycles fetch has spent squashing
system.cpu.fetch.miscStallCycles                  495                       # Number of cycles fetch has spent waiting on interrupts,or bad addresses, or out of MSHRs
system.cpu.fetch.pendingTrapStallCycles          3406                       # Number of stall cycles due to pending traps
system.cpu.fetch.pendingQuiesceStallCycles            9                       # Number of stall cycles due to pending quiesce instructions
system.cpu.fetch.icacheWaitRetryStallCycles           88                       # Number of stall cycles due to full MSHR
system.cpu.fetch.cacheLines                   1256080                       # Number of cache lines fetched
system.cpu.fetch.icacheSquashes                  4538                       # Number of outstanding Icache misses that were squashed
system.cpu.fetch.nisnDist::samples            5772766                       # Number of instructions fetched each cycle (Total)
system.cpu.fetch.nisnDist::mean              3.335477                       # Number of instructions fetched each cycle (Total)
system.cpu.fetch.nisnDist::stdev             3.563089                       # Number of instructions fetched each cycle (Total)
system.cpu.fetch.nisnDist::underflows               0      0.00%      0.00% # Number of instructions fetched each cycle (Total)
system.cpu.fetch.nisnDist::0                  2561441     44.37%     44.37% # Number of instructions fetched each cycle (Total)
system.cpu.fetch.nisnDist::1                   267981      4.64%     49.01% # Number of instructions fetched each cycle (Total)
system.cpu.fetch.nisnDist::2                   376542      6.52%     55.54% # Number of instructions fetched each cycle (Total)
system.cpu.fetch.nisnDist::3                   117183      2.03%     57.57% # Number of instructions fetched each cycle (Total)
system.cpu.fetch.nisnDist::4                   226227      3.92%     61.48% # Number of instructions fetched each cycle (Total)
system.cpu.fetch.nisnDist::5                   122375      2.12%     63.60% # Number of instructions fetched each cycle (Total)
system.cpu.fetch.nisnDist::6                    89631      1.55%     65.16% # Number of instructions fetched each cycle (Total)
system.cpu.fetch.nisnDist::7                   263341      4.56%     69.72% # Number of instructions fetched each cycle (Total)
system.cpu.fetch.nisnDist::8                  1748045     30.28%    100.00% # Number of instructions fetched each cycle (Total)
system.cpu.fetch.nisnDist::overflows                0      0.00%    100.00% # Number of instructions fetched each cycle (Total)
system.cpu.fetch.nisnDist::min_value                0                       # Number of instructions fetched each cycle (Total)
system.cpu.fetch.nisnDist::max_value                8                       # Number of instructions fetched each cycle (Total)
system.cpu.fetch.nisnDist::total              5772766                       # Number of instructions fetched each cycle (Total)
system.cpu.fetch.branchRate                  0.207230                       # Number of branch fetches per cycle
system.cpu.fetch.rate                        1.777636                       # Number of inst fetches per cycle
system.cpu.icache.demand_hits::.cpu.inst      1252745                       # number of demand (read+write) hits
system.cpu.icache.demand_hits::total          1252745                       # number of demand (read+write) hits
system.cpu.icache.overall_hits::.cpu.inst      1252745                       # number of overall hits
system.cpu.icache.overall_hits::total         1252745                       # number of overall hits
system.cpu.icache.demand_misses::.cpu.inst         3335                       # number of demand (read+write) misses
system.cpu.icache.demand_misses::total           3335                       # number of demand (read+write) misses
system.cpu.icache.overall_misses::.cpu.inst         3335                       # number of overall misses
system.cpu.icache.overall_misses::total          3335                       # number of overall misses
system.cpu.icache.demand_miss_latency::.cpu.inst    197721998                       # number of demand (read+write) miss cycles
system.cpu.icache.demand_miss_latency::total    197721998                       # number of demand (read+write) miss cycles
system.cpu.icache.overall_miss_latency::.cpu.inst    197721998                       # number of overall miss cycles
system.cpu.icache.overall_miss_latency::total    197721998                       # number of overall miss cycles
system.cpu.icache.demand_accesses::.cpu.inst      1256080                       # number of demand (read+write) accesses
system.cpu.icache.demand_accesses::total      1256080                       # number of demand (read+write) accesses
system.cpu.icache.overall_accesses::.cpu.inst      1256080                       # number of overall (read+write) accesses
system.cpu.icache.overall_accesses::total      1256080                       # number of overall (read+write) accesses
system.cpu.icache.demand_miss_rate::.cpu.inst     0.002655                       # miss rate for demand accesses
system.cpu.icache.demand_miss_rate::total     0.002655                       # miss rate for demand accesses
system.cpu.icache.overall_miss_rate::.cpu.inst     0.002655                       # miss rate for overall accesses
system.cpu.icache.overall_miss_rate::total     0.002655                       # miss rate for overall accesses
system.cpu.icache.demand_avg_miss_latency::.cpu.inst 59286.955922                       # average overall miss latency
system.cpu.icache.demand_avg_miss_latency::total 59286.955922                       # average overall miss latency
system.cpu.icache.overall_avg_miss_latency::.cpu.inst 59286.955922                       # average overall miss latency
system.cpu.icache.overall_avg_miss_latency::total 59286.955922                       # average overall miss latency
system.cpu.icache.blocked_cycles::no_mshrs          773                       # number of cycles access was blocked
system.cpu.icache.blocked_cycles::no_targets            0                       # number of cycles access was blocked
system.cpu.icache.blocked::no_mshrs                18                       # number of cycles access was blocked
system.cpu.icache.blocked::no_targets               0                       # number of cycles access was blocked
system.cpu.icache.avg_blocked_cycles::no_mshrs    42.944444                       # average number of cycles each access was blocked
system.cpu.icache.avg_blocked_cycles::no_targets          nan                       # average number of cycles each access was blocked
system.cpu.icache.writebacks::.writebacks         2108                       # number of writebacks
system.cpu.icache.writebacks::total              2108                       # number of writebacks
system.cpu.icache.demand_mshr_hits::.cpu.inst          716                       # number of demand (read+write) MSHR hits
system.cpu.icache.demand_mshr_hits::total          716                       # number of demand (read+write) MSHR hits
system.cpu.icache.overall_mshr_hits::.cpu.inst          716                       # number of overall MSHR hits
system.cpu.icache.overall_mshr_hits::total          716                       # number of overall MSHR hits
system.cpu.icache.demand_mshr_misses::.cpu.inst         2619                       # number of demand (read+write) MSHR misses
system.cpu.icache.demand_mshr_misses::total         2619                       # number of demand (read+write) MSHR misses
system.cpu.icache.overall_mshr_misses::.cpu.inst         2619                       # number of overall MSHR misses
system.cpu.icache.overall_mshr_misses::total         2619                       # number of overall MSHR misses
system.cpu.icache.demand_mshr_miss_latency::.cpu.inst    156727999                       # number of demand (read+write) MSHR miss cycles
system.cpu.icache.demand_mshr_miss_latency::total    156727999                       # number of demand (read+write) MSHR miss cycles
system.cpu.icache.overall_mshr_miss_latency::.cpu.inst    156727999                       # number of overall MSHR miss cycles
system.cpu.icache.overall_mshr_miss_latency::total    156727999                       # number of overall MSHR miss cycles
system.cpu.icache.demand_mshr_miss_rate::.cpu.inst     0.002085                       # mshr miss rate for demand accesses
system.cpu.icache.demand_mshr_miss_rate::total     0.002085                       # mshr miss rate for demand accesses
system.cpu.icache.overall_mshr_miss_rate::.cpu.inst     0.002085                       # mshr miss rate for overall accesses
system.cpu.icache.overall_mshr_miss_rate::total     0.002085                       # mshr miss rate for overall accesses
system.cpu.icache.demand_avg_mshr_miss_latency::.cpu.inst 59842.687667                       # average overall mshr miss latency
system.cpu.icache.demand_avg_mshr_miss_latency::total 59842.687667                       # average overall mshr miss latency
system.cpu.icache.overall_avg_mshr_miss_latency::.cpu.inst 59842.687667                       # average overall mshr miss latency
system.cpu.icache.overall_avg_mshr_miss_latency::total 59842.687667                       # average overall mshr miss latency
system.cpu.icache.replacements                   2108                       # number of replacements
system.cpu.icache.ReadReq_hits::.cpu.inst      1252745                       # number of ReadReq hits
system.cpu.icache.ReadReq_hits::total         1252745                       # number of ReadReq hits
system.cpu.icache.ReadReq_misses::.cpu.inst         3335                       # number of ReadReq misses
system.cpu.icache.ReadReq_misses::total          3335                       # number of ReadReq misses
system.cpu.icache.ReadReq_miss_latency::.cpu.inst    197721998                       # number of ReadReq miss cycles
system.cpu.icache.ReadReq_miss_latency::total    197721998                       # number of ReadReq miss cycles
system.cpu.icache.ReadReq_accesses::.cpu.inst      1256080                       # number of ReadReq accesses(hits+misses)
system.cpu.icache.ReadReq_accesses::total      1256080                       # number of ReadReq accesses(hits+misses)
system.cpu.icache.ReadReq_miss_rate::.cpu.inst     0.002655                       # miss rate for ReadReq accesses
system.cpu.icache.ReadReq_miss_rate::total     0.002655                       # miss rate for ReadReq accesses
system.cpu.icache.ReadReq_avg_miss_latency::.cpu.inst 59286.955922                       # average ReadReq miss latency
system.cpu.icache.ReadReq_avg_miss_latency::total 59286.955922                       # average ReadReq miss latency
system.cpu.icache.ReadReq_mshr_hits::.cpu.inst          716                       # number of ReadReq MSHR hits
system.cpu.icache.ReadReq_mshr_hits::total          716                       # number of ReadReq MSHR hits
system.cpu.icache.ReadReq_mshr_misses::.cpu.inst         2619                       # number of ReadReq MSHR misses
system.cpu.icache.ReadReq_mshr_misses::total         2619                       # number of ReadReq MSHR misses
system.cpu.icache.ReadReq_mshr_miss_latency::.cpu.inst    156727999                       # number of ReadReq MSHR miss cycles
system.cpu.icache.ReadReq_mshr_miss_latency::total    156727999                       # number of ReadReq MSHR miss cycles
system.cpu.icache.ReadReq_mshr_miss_rate::.cpu.inst     0.002085                       # mshr miss rate for ReadReq accesses
system.cpu.icache.ReadReq_mshr_miss_rate::total     0.002085                       # mshr miss rate for ReadReq accesses
system.cpu.icache.ReadReq_avg_mshr_miss_latency::.cpu.inst 59842.687667                       # average ReadReq mshr miss latency
system.cpu.icache.ReadReq_avg_mshr_miss_latency::total 59842.687667                       # average ReadReq mshr miss latency
system.cpu.icache.power_state.pwrStateResidencyTicks::UNDEFINED   2956809500                       # Cumulative time (in ticks) in various power states
system.cpu.icache.tags.tagsinuse           505.170973                       # Cycle average of tags in use
system.cpu.icache.tags.total_refs             1255364                       # Total number of references to valid blocks.
system.cpu.icache.tags.sampled_refs              2619                       # Sample count of references to valid blocks.
system.cpu.icache.tags.avg_refs            479.329515                       # Average number of references to valid blocks.
system.cpu.icache.tags.warmup_cycle             79500                       # Cycle when the warmup percentage was hit.
system.cpu.icache.tags.occ_blocks::.cpu.inst   505.170973                       # Average occupied blocks per requestor
system.cpu.icache.tags.occ_percent::.cpu.inst     0.986662                       # Average percentage of cache occupancy
system.cpu.icache.tags.occ_percent::total     0.986662                       # Average percentage of cache occupancy
system.cpu.icache.tags.occ_task_id_blocks::1024          511                       # Occupied blocks per task id
system.cpu.icache.tags.age_task_id_blocks_1024::2            3                       # Occupied blocks per task id
system.cpu.icache.tags.age_task_id_blocks_1024::3          508                       # Occupied blocks per task id
system.cpu.icache.tags.occ_task_id_percent::1024     0.998047                       # Percentage of cache occupancy per task id
system.cpu.icache.tags.tag_accesses           2514779                       # Number of tag accesses
system.cpu.icache.tags.data_accesses          2514779                       # Number of data accesses
system.cpu.icache.tags.power_state.pwrStateResidencyTicks::UNDEFINED   2956809500                       # Cumulative time (in ticks) in various power states
system.cpu.interrupts.clk_domain.clock           8000                       # Clock period in ticks
system.cpu.itb.rdAccesses                           0                       # TLB accesses on read requests
system.cpu.itb.wrAccesses                     1256614                       # TLB accesses on write requests
system.cpu.itb.rdMisses                             0                       # TLB misses on read requests
system.cpu.itb.wrMisses                           754                       # TLB misses on write requests
system.cpu.itb.walker.power_state.pwrStateResidencyTicks::UNDEFINED   2956809500                       # Cumulative time (in ticks) in various power states
system.cpu.itb_walker_cache.blocked_cycles::no_mshrs            0                       # number of cycles access was blocked
system.cpu.itb_walker_cache.blocked_cycles::no_targets            0                       # number of cycles access was blocked
system.cpu.itb_walker_cache.blocked::no_mshrs            0                       # number of cycles access was blocked
system.cpu.itb_walker_cache.blocked::no_targets            0                       # number of cycles access was blocked
system.cpu.itb_walker_cache.avg_blocked_cycles::no_mshrs          nan                       # average number of cycles each access was blocked
system.cpu.itb_walker_cache.avg_blocked_cycles::no_targets          nan                       # average number of cycles each access was blocked
system.cpu.itb_walker_cache.replacements            0                       # number of replacements
system.cpu.itb_walker_cache.power_state.pwrStateResidencyTicks::UNDEFINED   2956809500                       # Cumulative time (in ticks) in various power states
system.cpu.itb_walker_cache.tags.tagsinuse            0                       # Cycle average of tags in use
system.cpu.itb_walker_cache.tags.total_refs            0                       # Total number of references to valid blocks.
system.cpu.itb_walker_cache.tags.sampled_refs            0                       # Sample count of references to valid blocks.
system.cpu.itb_walker_cache.tags.avg_refs          nan                       # Average number of references to valid blocks.
system.cpu.itb_walker_cache.tags.warmup_cycle            0                       # Cycle when the warmup percentage was hit.
system.cpu.itb_walker_cache.tags.tag_accesses            0                       # Number of tag accesses
system.cpu.itb_walker_cache.tags.data_accesses            0                       # Number of data accesses
system.cpu.itb_walker_cache.tags.power_state.pwrStateResidencyTicks::UNDEFINED   2956809500                       # Cumulative time (in ticks) in various power states
system.cpu.lsq0.forwLoads                      148125                       # Number of loads that had data forwarded from stores
system.cpu.lsq0.squashedLoads                   77925                       # Number of loads squashed
system.cpu.lsq0.ignoredResponses                   77                       # Number of memory responses ignored because the instruction is squashed
system.cpu.lsq0.memOrderViolation                 157                       # Number of memory ordering violations
system.cpu.lsq0.squashedStores                  26149                       # Number of stores squashed
system.cpu.lsq0.rescheduledLoads                   36                       # Number of loads that were rescheduled
system.cpu.lsq0.blockedByCache                    384                       # Number of times an access to memory failed due to the cache being blocked
system.cpu.power_state.pwrStateResidencyTicks::ON   2956809500                       # Cumulative time (in ticks) in various power states
system.cpu.rename.squashCycles                  16698                       # Number of cycles rename is squashing
system.cpu.rename.idleCycles                  1098338                       # Number of cycles rename is idle
system.cpu.rename.blockCycles                  301558                       # Number of cycles rename is blocking
system.cpu.rename.serializeStallCycles           3005                       # count of cycles rename stalledfor serializing inst
system.cpu.rename.runCycles                   2010383                       # Number of cycles rename is running
system.cpu.rename.unblockCycles               2342784                       # Number of cycles rename is unblocking
system.cpu.rename.renamedInsts               18861663                       # Number of instructions processed by rename
system.cpu.rename.ROBFullEvents                  3100                       # Number of times rename has blocked due to ROB full
system.cpu.rename.IQFullEvents                1875310                       # Number of times rename has blocked due to IQ full
system.cpu.rename.LQFullEvents                   1480                       # Number of times rename has blocked due to LQ full
system.cpu.rename.SQFullEvents                 164555                       # Number of times rename has blocked due to SQ full
system.cpu.rename.fullRegistersEvents              27                       # Number of times there has been no free registers
system.cpu.rename.renamedOperands            21823683                       # Number of destination operands rename has renamed
system.cpu.rename.lookups                    44218028                       # Number of register rename lookups that rename has made
system.cpu.rename.intLookups                 20171375                       # Number of integer rename lookups
system.cpu.rename.fpLookups                  12329421                       # Number of floating rename lookups
system.cpu.rename.committedMaps              20388214                       # Number of HB maps that are committed
system.cpu.rename.undoneMaps                  1435321                       # Number of HB maps that are undone due to squashing
system.cpu.rename.serializing                      40                       # count of serializing insts renamed
system.cpu.rename.tempSerializing                  23                       # count of temporary serializing insts renamed
system.cpu.rename.skidInsts                   5320154                       # count of insts added to the skid buffer
system.cpu.rob.reads                         23477552                       # The number of ROB reads
system.cpu.rob.writes                        37592588                       # The number of ROB writes
system.cpu.thread_0.numInsts                 10000000                       # Number of Instructions committed
system.cpu.thread_0.numOps                   17911679                       # Number of Ops committed
system.cpu.thread_0.numMemRefs                      0                       # Number of Memory References
system.cpu_clk_domain.clock                       500                       # Clock period in ticks
system.cpu_voltage_domain.voltage                   1                       # Voltage in Volts
system.l2.demand_hits::.cpu.inst                  481                       # number of demand (read+write) hits
system.l2.demand_hits::.cpu.data                 1695                       # number of demand (read+write) hits
system.l2.demand_hits::total                     2176                       # number of demand (read+write) hits
system.l2.overall_hits::.cpu.inst                 481                       # number of overall hits
system.l2.overall_hits::.cpu.data                1695                       # number of overall hits
system.l2.overall_hits::total                    2176                       # number of overall hits
system.l2.demand_misses::.cpu.inst               2136                       # number of demand (read+write) misses
system.l2.demand_misses::.cpu.data              13038                       # number of demand (read+write) misses
system.l2.demand_misses::total                  15174                       # number of demand (read+write) misses
system.l2.overall_misses::.cpu.inst              2136                       # number of overall misses
system.l2.overall_misses::.cpu.data             13038                       # number of overall misses
system.l2.overall_misses::total                 15174                       # number of overall misses
system.l2.demand_miss_latency::.cpu.inst    147639500                       # number of demand (read+write) miss cycles
system.l2.demand_miss_latency::.cpu.data    906860500                       # number of demand (read+write) miss cycles
system.l2.demand_miss_latency::total       1054500000                       # number of demand (read+write) miss cycles
system.l2.overall_miss_latency::.cpu.inst    147639500                       # number of overall miss cycles
system.l2.overall_miss_latency::.cpu.data    906860500                       # number of overall miss cycles
system.l2.overall_miss_latency::total      1054500000                       # number of overall miss cycles
system.l2.demand_accesses::.cpu.inst             2617                       # number of demand (read+write) accesses
system.l2.demand_accesses::.cpu.data            14733                       # number of demand (read+write) accesses
system.l2.demand_accesses::total                17350                       # number of demand (read+write) accesses
system.l2.overall_accesses::.cpu.inst            2617                       # number of overall (read+write) accesses
system.l2.overall_accesses::.cpu.data           14733                       # number of overall (read+write) accesses
system.l2.overall_accesses::total               17350                       # number of overall (read+write) accesses
system.l2.demand_miss_rate::.cpu.inst        0.816202                       # miss rate for demand accesses
system.l2.demand_miss_rate::.cpu.data        0.884952                       # miss rate for demand accesses
system.l2.demand_miss_rate::total            0.874582                       # miss rate for demand accesses
system.l2.overall_miss_rate::.cpu.inst       0.816202                       # miss rate for overall accesses
system.l2.overall_miss_rate::.cpu.data       0.884952                       # miss rate for overall accesses
system.l2.overall_miss_rate::total           0.874582                       # miss rate for overall accesses
system.l2.demand_avg_miss_latency::.cpu.inst 69119.616105                       # average overall miss latency
system.l2.demand_avg_miss_latency::.cpu.data 69555.184844                       # average overall miss latency
system.l2.demand_avg_miss_latency::total 69493.871095                       # average overall miss latency
system.l2.overall_avg_miss_latency::.cpu.inst 69119.616105                       # average overall miss latency
system.l2.overall_avg_miss_latency::.cpu.data 69555.184844                       # average overall miss latency
[...]
system.mem_ctrls.dram.bw_total::.cpu.data    282206885                       # Total bandwidth to/from this memory (bytes/s)
system.mem_ctrls.dram.bw_total::total       379825619                       # Total bandwidth to/from this memory (bytes/s)
system.mem_ctrls.dram.readBursts                15168                       # Number of DRAM read bursts
system.mem_ctrls.dram.writeBursts                2358                       # Number of DRAM write bursts
system.mem_ctrls.dram.perBankRdBursts::0         1144                       # Per bank write bursts
system.mem_ctrls.dram.perBankRdBursts::1          956                       # Per bank write bursts
system.mem_ctrls.dram.perBankRdBursts::2          821                       # Per bank write bursts
system.mem_ctrls.dram.perBankRdBursts::3          866                       # Per bank write bursts
system.mem_ctrls.dram.perBankRdBursts::4          972                       # Per bank write bursts
system.mem_ctrls.dram.perBankRdBursts::5          959                       # Per bank write bursts
system.mem_ctrls.dram.perBankRdBursts::6         1010                       # Per bank write bursts
system.mem_ctrls.dram.perBankRdBursts::7          951                       # Per bank write bursts
system.mem_ctrls.dram.perBankRdBursts::8          955                       # Per bank write bursts
system.mem_ctrls.dram.perBankRdBursts::9          908                       # Per bank write bursts
system.mem_ctrls.dram.perBankRdBursts::10          791                       # Per bank write bursts
system.mem_ctrls.dram.perBankRdBursts::11         1009                       # Per bank write bursts
system.mem_ctrls.dram.perBankRdBursts::12          843                       # Per bank write bursts
system.mem_ctrls.dram.perBankRdBursts::13          882                       # Per bank write bursts
system.mem_ctrls.dram.perBankRdBursts::14         1056                       # Per bank write bursts
system.mem_ctrls.dram.perBankRdBursts::15         1045                       # Per bank write bursts
system.mem_ctrls.dram.perBankWrBursts::0          189                       # Per bank write bursts
system.mem_ctrls.dram.perBankWrBursts::1           65                       # Per bank write bursts
system.mem_ctrls.dram.perBankWrBursts::2           77                       # Per bank write bursts
system.mem_ctrls.dram.perBankWrBursts::3          110                       # Per bank write bursts
system.mem_ctrls.dram.perBankWrBursts::4          109                       # Per bank write bursts
system.mem_ctrls.dram.perBankWrBursts::5          230                       # Per bank write bursts
system.mem_ctrls.dram.perBankWrBursts::6          248                       # Per bank write bursts
system.mem_ctrls.dram.perBankWrBursts::7          181                       # Per bank write bursts
system.mem_ctrls.dram.perBankWrBursts::8          139                       # Per bank write bursts
system.mem_ctrls.dram.perBankWrBursts::9           66                       # Per bank write bursts
system.mem_ctrls.dram.perBankWrBursts::10          111                       # Per bank write bursts
system.mem_ctrls.dram.perBankWrBursts::11          152                       # Per bank write bursts
system.mem_ctrls.dram.perBankWrBursts::12           22                       # Per bank write bursts
system.mem_ctrls.dram.perBankWrBursts::13          138                       # Per bank write bursts
system.mem_ctrls.dram.perBankWrBursts::14          330                       # Per bank write bursts
system.mem_ctrls.dram.perBankWrBursts::15          191                       # Per bank write bursts
system.mem_ctrls.dram.totQLat               114257250                       # Total ticks spent queuing
system.mem_ctrls.dram.totBusLat              75840000                       # Total ticks spent in databus transfers
system.mem_ctrls.dram.totMemAccLat          398657250                       # Total ticks spent from burst creation until serviced by the DRAM
system.mem_ctrls.dram.avgQLat                 7532.78                       # Average queueing delay per DRAM burst
system.mem_ctrls.dram.avgBusLat               5000.00                       # Average bus latency per DRAM burst
system.mem_ctrls.dram.avgMemAccLat           26282.78                       # Average memory access latency per DRAM burst
system.mem_ctrls.dram.readRowHits               13195                       # Number of row buffer hits during reads
system.mem_ctrls.dram.writeRowHits               1965                       # Number of row buffer hits during writes
system.mem_ctrls.dram.readRowHitRate            86.99                       # Row buffer hit rate for reads
system.mem_ctrls.dram.writeRowHitRate           83.33                       # Row buffer hit rate for writes
system.mem_ctrls.dram.bytesPerActivate::samples         2363                       # Bytes accessed per row activation
system.mem_ctrls.dram.bytesPerActivate::mean   474.298773                       # Bytes accessed per row activation
system.mem_ctrls.dram.bytesPerActivate::gmean   307.891887                       # Bytes accessed per row activation
system.mem_ctrls.dram.bytesPerActivate::stdev   367.260306                       # Bytes accessed per row activation
system.mem_ctrls.dram.bytesPerActivate::0-127          462     19.55%     19.55% # Bytes accessed per row activation
system.mem_ctrls.dram.bytesPerActivate::128-255          456     19.30%     38.85% # Bytes accessed per row activation
system.mem_ctrls.dram.bytesPerActivate::256-383          259     10.96%     49.81% # Bytes accessed per row activation
system.mem_ctrls.dram.bytesPerActivate::384-511          171      7.24%     57.05% # Bytes accessed per row activation
system.mem_ctrls.dram.bytesPerActivate::512-639          147      6.22%     63.27% # Bytes accessed per row activation
system.mem_ctrls.dram.bytesPerActivate::640-767          113      4.78%     68.05% # Bytes accessed per row activation
system.mem_ctrls.dram.bytesPerActivate::768-895           88      3.72%     71.77% # Bytes accessed per row activation
system.mem_ctrls.dram.bytesPerActivate::896-1023          350     14.81%     86.58% # Bytes accessed per row activation
system.mem_ctrls.dram.bytesPerActivate::1024-1151          317     13.42%    100.00% # Bytes accessed per row activation
system.mem_ctrls.dram.bytesPerActivate::total         2363                       # Bytes accessed per row activation
system.mem_ctrls.dram.bytesRead                970752                       # Total number of bytes read from DRAM
system.mem_ctrls.dram.bytesWritten             150912                       # Total number of bytes written to DRAM
system.mem_ctrls.dram.avgRdBW              328.310633                       # Average DRAM read bandwidth in MiBytes/s
system.mem_ctrls.dram.avgWrBW               51.038797                       # Average DRAM write bandwidth in MiBytes/s
system.mem_ctrls.dram.peakBW                 12800.00                       # Theoretical peak bandwidth in MiByte/s
system.mem_ctrls.dram.busUtil                    2.96                       # Data bus utilization in percentage
system.mem_ctrls.dram.busUtilRead                2.56                       # Data bus utilization in percentage for reads
system.mem_ctrls.dram.busUtilWrite               0.40                       # Data bus utilization in percentage for writes
system.mem_ctrls.dram.pageHitRate               86.50                       # Row buffer hit rate, read and write combined
system.mem_ctrls.dram.power_state.pwrStateResidencyTicks::UNDEFINED   2956809500                       # Cumulative time (in ticks) in various power states
system.mem_ctrls.dram.rank0.actEnergy         8610840                       # Energy for activate commands per rank (pJ)
system.mem_ctrls.dram.rank0.preEnergy         4569180                       # Energy for precharge commands per rank (pJ)
system.mem_ctrls.dram.rank0.readEnergy       54828060                       # Energy for read commands per rank (pJ)
system.mem_ctrls.dram.rank0.writeEnergy       6310980                       # Energy for write commands per rank (pJ)
system.mem_ctrls.dram.rank0.refreshEnergy 232948560.000000                       # Energy for refresh commands per rank (pJ)
system.mem_ctrls.dram.rank0.actBackEnergy    904368270                       # Energy for active background per rank (pJ)
system.mem_ctrls.dram.rank0.preBackEnergy    373841760                       # Energy for precharge background per rank (pJ)
system.mem_ctrls.dram.rank0.actPowerDownEnergy            0                       # Energy for active power-down per rank (pJ)
system.mem_ctrls.dram.rank0.prePowerDownEnergy            0                       # Energy for precharge power-down per rank (pJ)
system.mem_ctrls.dram.rank0.selfRefreshEnergy            0                       # Energy for self refresh per rank (pJ)
system.mem_ctrls.dram.rank0.totalEnergy    1585477650                       # Total energy per rank (pJ)
system.mem_ctrls.dram.rank0.averagePower   536.212309                       # Core power per rank (mW)
system.mem_ctrls.dram.rank0.totalIdleTime            0                       # Total Idle time Per DRAM Rank
system.mem_ctrls.dram.rank0.pwrStateTime::IDLE    963142500                       # Time in different power states
system.mem_ctrls.dram.rank0.pwrStateTime::REF     98540000                       # Time in different power states
system.mem_ctrls.dram.rank0.pwrStateTime::SREF            0                       # Time in different power states
system.mem_ctrls.dram.rank0.pwrStateTime::PRE_PDN            0                       # Time in different power states
system.mem_ctrls.dram.rank0.pwrStateTime::ACT   1895127000                       # Time in different power states
system.mem_ctrls.dram.rank0.pwrStateTime::ACT_PDN            0                       # Time in different power states
system.mem_ctrls.dram.rank1.actEnergy         8282400                       # Energy for activate commands per rank (pJ)
system.mem_ctrls.dram.rank1.preEnergy         4398405                       # Energy for precharge commands per rank (pJ)
system.mem_ctrls.dram.rank1.readEnergy       53471460                       # Energy for read commands per rank (pJ)
system.mem_ctrls.dram.rank1.writeEnergy       5997780                       # Energy for write commands per rank (pJ)
system.mem_ctrls.dram.rank1.refreshEnergy 232948560.000000                       # Energy for refresh commands per rank (pJ)
system.mem_ctrls.dram.rank1.actBackEnergy    950071440                       # Energy for active background per rank (pJ)
system.mem_ctrls.dram.rank1.preBackEnergy    335354880                       # Energy for precharge background per rank (pJ)
system.mem_ctrls.dram.rank1.actPowerDownEnergy            0                       # Energy for active power-down per rank (pJ)
system.mem_ctrls.dram.rank1.prePowerDownEnergy            0                       # Energy for precharge power-down per rank (pJ)
system.mem_ctrls.dram.rank1.selfRefreshEnergy            0                       # Energy for self refresh per rank (pJ)
system.mem_ctrls.dram.rank1.totalEnergy    1590524925                       # Total energy per rank (pJ)
system.mem_ctrls.dram.rank1.averagePower   537.919310                       # Core power per rank (mW)
system.mem_ctrls.dram.rank1.totalIdleTime            0                       # Total Idle time Per DRAM Rank
system.mem_ctrls.dram.rank1.pwrStateTime::IDLE    863164000                       # Time in different power states
system.mem_ctrls.dram.rank1.pwrStateTime::REF     98540000                       # Time in different power states
system.mem_ctrls.dram.rank1.pwrStateTime::SREF            0                       # Time in different power states
system.mem_ctrls.dram.rank1.pwrStateTime::PRE_PDN            0                       # Time in different power states
system.mem_ctrls.dram.rank1.pwrStateTime::ACT   1995105500                       # Time in different power states
system.mem_ctrls.dram.rank1.pwrStateTime::ACT_PDN            0                       # Time in different power states
system.mem_ctrls.power_state.pwrStateResidencyTicks::UNDEFINED   2956809500                       # Cumulative time (in ticks) in various power states
system.membus.trans_dist::ReadResp               4722                       # Transaction distribution
system.membus.trans_dist::WritebackDirty         2374                       # Transaction distribution
system.membus.trans_dist::CleanEvict             4097                       # Transaction distribution
system.membus.trans_dist::ReadExReq             10452                       # Transaction distribution
system.membus.trans_dist::ReadExResp            10452                       # Transaction distribution
system.membus.trans_dist::ReadSharedReq          4722                       # Transaction distribution
system.membus.pkt_count_system.l2.mem_side_port::system.mem_ctrls.port        36819                       # Packet count per connected requestor and responder (bytes)
system.membus.pkt_count_system.l2.mem_side_port::total        36819                       # Packet count per connected requestor and responder (bytes)
system.membus.pkt_count::total                  36819                       # Packet count per connected requestor and responder (bytes)
system.membus.pkt_size_system.l2.mem_side_port::system.mem_ctrls.port      1123072                       # Cumulative packet size per connected requestor and responder (bytes)
system.membus.pkt_size_system.l2.mem_side_port::total      1123072                       # Cumulative packet size per connected requestor and responder (bytes)
system.membus.pkt_size::total                 1123072                       # Cumulative packet size per connected requestor and responder (bytes)
system.membus.snoops                                0                       # Total snoops (count)
system.membus.snoopTraffic                          0                       # Total snoop traffic (bytes)
system.membus.snoop_fanout::samples             15174                       # Request fanout histogram
system.membus.snoop_fanout::mean                    0                       # Request fanout histogram
system.membus.snoop_fanout::stdev                   0                       # Request fanout histogram
system.membus.snoop_fanout::underflows              0      0.00%      0.00% # Request fanout histogram
system.membus.snoop_fanout::0                   15174    100.00%    100.00% # Request fanout histogram
system.membus.snoop_fanout::1                       0      0.00%    100.00% # Request fanout histogram
system.membus.snoop_fanout::overflows               0      0.00%    100.00% # Request fanout histogram
system.membus.snoop_fanout::min_value               0                       # Request fanout histogram
system.membus.snoop_fanout::max_value               0                       # Request fanout histogram
system.membus.snoop_fanout::total               15174                       # Request fanout histogram
system.membus.power_state.pwrStateResidencyTicks::UNDEFINED   2956809500                       # Cumulative time (in ticks) in various power states
system.membus.reqLayer2.occupancy             7785250                       # Layer occupancy (ticks)
system.membus.reqLayer2.utilization               0.3                       # Layer utilization (%)
system.membus.respLayer1.occupancy           18967500                       # Layer occupancy (ticks)
system.membus.respLayer1.utilization              0.6                       # Layer utilization (%)
system.tol2bus.trans_dist::ReadResp              6647                       # Transaction distribution
system.tol2bus.trans_dist::WritebackDirty        13397                       # Transaction distribution
system.tol2bus.trans_dist::WritebackClean         2108                       # Transaction distribution
system.tol2bus.trans_dist::CleanEvict            7810                       # Transaction distribution
system.tol2bus.trans_dist::ReadExReq            10705                       # Transaction distribution
system.tol2bus.trans_dist::ReadExResp           10705                       # Transaction distribution
system.tol2bus.trans_dist::ReadCleanReq          2619                       # Transaction distribution
system.tol2bus.trans_dist::ReadSharedReq         4028                       # Transaction distribution
system.tol2bus.pkt_count_system.cpu.icache.mem_side_port::system.l2.cpu_side_port         7344                       # Packet count per connected requestor and responder (bytes)
system.tol2bus.pkt_count_system.cpu.dcache.mem_side_port::system.l2.cpu_side_port        43687                       # Packet count per connected requestor and responder (bytes)
system.tol2bus.pkt_count::total                 51031                       # Packet count per connected requestor and responder (bytes)
system.tol2bus.pkt_size_system.cpu.icache.mem_side_port::system.l2.cpu_side_port       302400                       # Cumulative packet size per connected requestor and responder (bytes)
system.tol2bus.pkt_size_system.cpu.dcache.mem_side_port::system.l2.cpu_side_port      1648384                       # Cumulative packet size per connected requestor and responder (bytes)
system.tol2bus.pkt_size::total                1950784                       # Cumulative packet size per connected requestor and responder (bytes)
system.tol2bus.snoops                            6988                       # Total snoops (count)
system.tol2bus.snoopTraffic                    152064                       # Total snoop traffic (bytes)
system.tol2bus.snoop_fanout::samples            24338                       # Request fanout histogram
system.tol2bus.snoop_fanout::mean            0.021653                       # Request fanout histogram
system.tol2bus.snoop_fanout::stdev           0.145552                       # Request fanout histogram
system.tol2bus.snoop_fanout::underflows             0      0.00%      0.00% # Request fanout histogram
system.tol2bus.snoop_fanout::0                  23811     97.83%     97.83% # Request fanout histogram
system.tol2bus.snoop_fanout::1                    527      2.17%    100.00% # Request fanout histogram
system.tol2bus.snoop_fanout::2                      0      0.00%    100.00% # Request fanout histogram
system.tol2bus.snoop_fanout::3                      0      0.00%    100.00% # Request fanout histogram
system.tol2bus.snoop_fanout::4                      0      0.00%    100.00% # Request fanout histogram
system.tol2bus.snoop_fanout::overflows              0      0.00%    100.00% # Request fanout histogram
system.tol2bus.snoop_fanout::min_value              0                       # Request fanout histogram
system.tol2bus.snoop_fanout::max_value              1                       # Request fanout histogram
system.tol2bus.snoop_fanout::total              24338                       # Request fanout histogram
system.tol2bus.power_state.pwrStateResidencyTicks::UNDEFINED   2956809500                       # Cumulative time (in ticks) in various power states
system.tol2bus.reqLayer0.occupancy           29971500                       # Layer occupancy (ticks)
system.tol2bus.reqLayer0.utilization              1.0                       # Layer utilization (%)
system.tol2bus.respLayer0.occupancy           3930496                       # Layer occupancy (ticks)
system.tol2bus.respLayer0.utilization             0.1                       # Layer utilization (%)
system.tol2bus.respLayer1.occupancy          22099500                       # Layer occupancy (ticks)
system.tol2bus.respLayer1.utilization             0.7                       # Layer utilization (%)
system.voltage_domain.voltage                       1                       # Voltage in Volts

---------- End Simulation Statistics   ----------
