
---------- Begin Simulation Statistics ----------
final_tick                                 2917878500                       # Number of ticks from beginning of simulation (restored from checkpoints and never reset)
host_inst_rate                                 107881                       # Simulator instruction rate (inst/s)
host_mem_usage                                 705956                       # Number of bytes of host memory used
host_op_rate                                   193232                       # Simulator op (including micro ops) rate (op/s)
host_seconds                                    92.70                       # Real time elapsed on the host
host_tick_rate                               31478154                       # Simulator tick rate (ticks/s)
sim_freq                                 1000000000000                       # Frequency of simulated ticks
sim_insts                                    10000000                       # Number of instructions simulated
sim_ops                                      17911679                       # Number of ops (including micro ops) simulated
sim_seconds                                  0.002918                       # Number of seconds simulated
sim_ticks                                  2917878500                       # Number of ticks simulated
system.cpu.cc_regfile_reads                   4856668                       # number of cc regfile reads
system.cpu.cc_regfile_writes                  4234320                       # number of cc regfile writes
system.cpu.committedInsts                    10000000                       # Number of Instructions Simulated
system.cpu.committedOps                      17911679                       # Number of Ops (including micro ops) Simulated
system.cpu.cpi                               0.583576                       # CPI: Cycles Per Instruction
system.cpu.cpi_total                         0.583576                       # CPI: Total CPI of All Threads
system.cpu.fp_regfile_reads                  12295236                       # number of floating regfile reads
system.cpu.fp_regfile_writes                  6922384                       # number of floating regfile writes
system.cpu.idleCycles                          141688                       # Total number of cycles that the CPU has spent unscheduled due to idling
system.cpu.iew.branchMispredicts                14632                       # Number of branch mispredicts detected at execute
system.cpu.iew.exec_branches                  1113525                       # Number of branches executed
system.cpu.iew.exec_nop                             0                       # number of nop insts executed
system.cpu.iew.exec_rate                     3.129236                       # Inst execution rate
system.cpu.iew.exec_refs                      2778570                       # number of memory reference insts executed
system.cpu.iew.exec_stores                     483473                       # Number of stores executed
system.cpu.iew.exec_swp                             0                       # number of swp insts executed
system.cpu.iew.iewBlockCycles                  169368                       # Number of cycles IEW is blocking
system.cpu.iew.iewDispLoadInsts               2310310                       # Number of dispatched load instructions
system.cpu.iew.iewDispNonSpecInsts                 22                       # Number of dispatched non-speculative instructions
system.cpu.iew.iewDispSquashedInsts              1308                       # Number of squashed instructions skipped by dispatch
system.cpu.iew.iewDispStoreInsts               493099                       # Number of dispatched store instructions
system.cpu.iew.iewDispatchedInsts            18525890                       # Number of instructions dispatched to IQ
system.cpu.iew.iewExecLoadInsts               2295097                       # Number of load instructions executed
system.cpu.iew.iewExecSquashedInsts             20835                       # Number of squashed instructions skipped in execute
system.cpu.iew.iewExecutedInsts              18261466                       # Number of executed instructions
system.cpu.iew.iewIQFullEvents                   1359                       # Number of times the IQ has become full, causing a stall
system.cpu.iew.iewIdleCycles                        0                       # Number of cycles IEW is idle
system.cpu.iew.iewLSQFullEvents                 43893                       # Number of times the LSQ has become full, causing a stall
system.cpu.iew.iewSquashCycles                  12671                       # Number of cycles IEW is squashing
system.cpu.iew.iewUnblockCycles                 45830                       # Number of cycles IEW is unblocking
system.cpu.iew.memOrderViolationEvents            153                       # Number of memory order violations
system.cpu.iew.predictedNotTakenIncorrect         9322                       # Number of branches that were predicted not taken incorrectly
system.cpu.iew.predictedTakenIncorrect           5310                       # Number of branches that were predicted taken incorrectly
system.cpu.iew.wb_consumers                  25005913                       # num instructions consuming a value
system.cpu.iew.wb_count                      18248323                       # cumulative count of insts written-back
system.cpu.iew.wb_fanout                     0.573102                       # average fanout of values written-back
system.cpu.iew.wb_producers                  14330944                       # num instructions producing a value
system.cpu.iew.wb_rate                       3.126984                       # insts written-back per cycle
system.cpu.iew.wb_sent                       18253135                       # cumulative count of insts sent to commit
system.cpu.int_regfile_reads                 18649827                       # number of integer regfile reads
system.cpu.int_regfile_writes                 9640835                       # number of integer regfile writes
system.cpu.ipc                               1.713573                       # IPC: Instructions Per Cycle
system.cpu.ipc_total                         1.713573                       # IPC: Total IPC of All Threads
system.cpu.iq.FU_type_0::No_OpClass            317193      1.73%      1.73% # Type of FU issued
system.cpu.iq.FU_type_0::IntAlu               9847833     53.87%     55.60% # Type of FU issued
system.cpu.iq.FU_type_0::IntMult                 1803      0.01%     55.61% # Type of FU issued
system.cpu.iq.FU_type_0::IntDiv                101151      0.55%     56.16% # Type of FU issued
system.cpu.iq.FU_type_0::FloatAdd              424196      2.32%     58.48% # Type of FU issued
system.cpu.iq.FU_type_0::FloatCmp                   0      0.00%     58.48% # Type of FU issued
system.cpu.iq.FU_type_0::FloatCvt                  32      0.00%     58.48% # Type of FU issued
system.cpu.iq.FU_type_0::FloatMult                  0      0.00%     58.48% # Type of FU issued
system.cpu.iq.FU_type_0::FloatMultAcc               0      0.00%     58.48% # Type of FU issued
system.cpu.iq.FU_type_0::FloatDiv                   0      0.00%     58.48% # Type of FU issued
system.cpu.iq.FU_type_0::FloatMisc                  0      0.00%     58.48% # Type of FU issued
system.cpu.iq.FU_type_0::FloatSqrt                  0      0.00%     58.48% # Type of FU issued
system.cpu.iq.FU_type_0::SimdAdd                 3063      0.02%     58.50% # Type of FU issued
system.cpu.iq.FU_type_0::SimdAddAcc                 0      0.00%     58.50% # Type of FU issued
system.cpu.iq.FU_type_0::SimdAlu               851015      4.65%     63.16% # Type of FU issued
system.cpu.iq.FU_type_0::SimdCmp                   12      0.00%     63.16% # Type of FU issued
system.cpu.iq.FU_type_0::SimdCvt                 7148      0.04%     63.19% # Type of FU issued
system.cpu.iq.FU_type_0::SimdMisc              848281      4.64%     67.83% # Type of FU issued
system.cpu.iq.FU_type_0::SimdMult                  64      0.00%     67.83% # Type of FU issued
system.cpu.iq.FU_type_0::SimdMultAcc                0      0.00%     67.83% # Type of FU issued
system.cpu.iq.FU_type_0::SimdShift               2420      0.01%     67.85% # Type of FU issued
system.cpu.iq.FU_type_0::SimdShiftAcc               0      0.00%     67.85% # Type of FU issued
system.cpu.iq.FU_type_0::SimdDiv                    0      0.00%     67.85% # Type of FU issued
system.cpu.iq.FU_type_0::SimdSqrt                   0      0.00%     67.85% # Type of FU issued
system.cpu.iq.FU_type_0::SimdFloatAdd         1405579      7.69%     75.54% # Type of FU issued
system.cpu.iq.FU_type_0::SimdFloatAlu               0      0.00%     75.54% # Type of FU issued
system.cpu.iq.FU_type_0::SimdFloatCmp               0      0.00%     75.54% # Type of FU issued
system.cpu.iq.FU_type_0::SimdFloatCvt          702995      3.85%     79.38% # Type of FU issued
system.cpu.iq.FU_type_0::SimdFloatDiv               2      0.00%     79.38% # Type of FU issued
system.cpu.iq.FU_type_0::SimdFloatMisc              0      0.00%     79.38% # Type of FU issued
system.cpu.iq.FU_type_0::SimdFloatMult         984235      5.38%     84.77% # Type of FU issued
system.cpu.iq.FU_type_0::SimdFloatMultAcc            0      0.00%     84.77% # Type of FU issued
system.cpu.iq.FU_type_0::SimdFloatSqrt              0      0.00%     84.77% # Type of FU issued
system.cpu.iq.FU_type_0::SimdReduceAdd              0      0.00%     84.77% # Type of FU issued
system.cpu.iq.FU_type_0::SimdReduceAlu              0      0.00%     84.77% # Type of FU issued
system.cpu.iq.FU_type_0::SimdReduceCmp              0      0.00%     84.77% # Type of FU issued
system.cpu.iq.FU_type_0::SimdFloatReduceAdd            0      0.00%     84.77% # Type of FU issued
system.cpu.iq.FU_type_0::SimdFloatReduceCmp            0      0.00%     84.77% # Type of FU issued
system.cpu.iq.FU_type_0::SimdAes                    0      0.00%     84.77% # Type of FU issued
system.cpu.iq.FU_type_0::SimdAesMix                 0      0.00%     84.77% # Type of FU issued
system.cpu.iq.FU_type_0::SimdSha1Hash               0      0.00%     84.77% # Type of FU issued
system.cpu.iq.FU_type_0::SimdSha1Hash2              0      0.00%     84.77% # Type of FU issued
system.cpu.iq.FU_type_0::SimdSha256Hash             0      0.00%     84.77% # Type of FU issued
system.cpu.iq.FU_type_0::SimdSha256Hash2            0      0.00%     84.77% # Type of FU issued
system.cpu.iq.FU_type_0::SimdShaSigma2              0      0.00%     84.77% # Type of FU issued
system.cpu.iq.FU_type_0::SimdShaSigma3              0      0.00%     84.77% # Type of FU issued
system.cpu.iq.FU_type_0::SimdPredAlu                0      0.00%     84.77% # Type of FU issued
system.cpu.iq.FU_type_0::MemRead               743275      4.07%     88.83% # Type of FU issued
system.cpu.iq.FU_type_0::MemWrite              476928      2.61%     91.44% # Type of FU issued
system.cpu.iq.FU_type_0::FloatMemRead         1557402      8.52%     99.96% # Type of FU issued
system.cpu.iq.FU_type_0::FloatMemWrite           7676      0.04%    100.00% # Type of FU issued
system.cpu.iq.FU_type_0::IprAccess                  0      0.00%    100.00% # Type of FU issued
system.cpu.iq.FU_type_0::InstPrefetch               0      0.00%    100.00% # Type of FU issued
system.cpu.iq.FU_type_0::total               18282303                       # Type of FU issued
system.cpu.iq.fp_alu_accesses                 7358007                       # Number of floating point alu accesses
system.cpu.iq.fp_inst_queue_reads            14715850                       # Number of floating instruction queue reads
system.cpu.iq.fp_inst_queue_wakeup_accesses      7354427                       # Number of floating instruction queue wakeup accesses
system.cpu.iq.fp_inst_queue_writes            7404793                       # Number of floating instruction queue writes
system.cpu.iq.fu_busy_cnt                      158994                       # FU busy when requested
system.cpu.iq.fu_busy_rate                   0.008697                       # FU busy rate (busy events/executed inst)
system.cpu.iq.fu_full::No_OpClass                   0      0.00%      0.00% # attempts to use FU when none available
system.cpu.iq.fu_full::IntAlu                  156516     98.44%     98.44% # attempts to use FU when none available
system.cpu.iq.fu_full::IntMult                      0      0.00%     98.44% # attempts to use FU when none available
system.cpu.iq.fu_full::IntDiv                       0      0.00%     98.44% # attempts to use FU when none available
system.cpu.iq.fu_full::FloatAdd                     0      0.00%     98.44% # attempts to use FU when none available
system.cpu.iq.fu_full::FloatCmp                     0      0.00%     98.44% # attempts to use FU when none available
system.cpu.iq.fu_full::FloatCvt                     0      0.00%     98.44% # attempts to use FU when none available
system.cpu.iq.fu_full::FloatMult                    0      0.00%     98.44% # attempts to use FU when none available
system.cpu.iq.fu_full::FloatMultAcc                 0      0.00%     98.44% # attempts to use FU when none available
system.cpu.iq.fu_full::FloatDiv                     0      0.00%     98.44% # attempts to use FU when none available
system.cpu.iq.fu_full::FloatMisc                    0      0.00%     98.44% # attempts to use FU when none available
system.cpu.iq.fu_full::FloatSqrt                    0      0.00%     98.44% # attempts to use FU when none available
system.cpu.iq.fu_full::SimdAdd                      0      0.00%     98.44% # attempts to use FU when none available
system.cpu.iq.fu_full::SimdAddAcc                   0      0.00%     98.44% # attempts to use FU when none available
system.cpu.iq.fu_full::SimdAlu                     57      0.04%     98.48% # attempts to use FU when none available
system.cpu.iq.fu_full::SimdCmp                      0      0.00%     98.48% # attempts to use FU when none available
system.cpu.iq.fu_full::SimdCvt                     41      0.03%     98.50% # attempts to use FU when none available
system.cpu.iq.fu_full::SimdMisc                    12      0.01%     98.51% # attempts to use FU when none available
system.cpu.iq.fu_full::SimdMult                     0      0.00%     98.51% # attempts to use FU when none available
system.cpu.iq.fu_full::SimdMultAcc                  0      0.00%     98.51% # attempts to use FU when none available
system.cpu.iq.fu_full::SimdShift                   51      0.03%     98.54% # attempts to use FU when none available
system.cpu.iq.fu_full::SimdShiftAcc                 0      0.00%     98.54% # attempts to use FU when none available
system.cpu.iq.fu_full::SimdDiv                      0      0.00%     98.54% # attempts to use FU when none available
system.cpu.iq.fu_full::SimdSqrt                     0      0.00%     98.54% # attempts to use FU when none available
system.cpu.iq.fu_full::SimdFloatAdd                 0      0.00%     98.54% # attempts to use FU when none available
system.cpu.iq.fu_full::SimdFloatAlu                 0      0.00%     98.54% # attempts to use FU when none available
system.cpu.iq.fu_full::SimdFloatCmp                 0      0.00%     98.54% # attempts to use FU when none available
system.cpu.iq.fu_full::SimdFloatCvt                 0      0.00%     98.54% # attempts to use FU when none available
system.cpu.iq.fu_full::SimdFloatDiv                 0      0.00%     98.54% # attempts to use FU when none available
system.cpu.iq.fu_full::SimdFloatMisc                0      0.00%     98.54% # attempts to use FU when none available
system.cpu.iq.fu_full::SimdFloatMult                0      0.00%     98.54% # attempts to use FU when none available
system.cpu.iq.fu_full::SimdFloatMultAcc             0      0.00%     98.54% # attempts to use FU when none available
system.cpu.iq.fu_full::SimdFloatSqrt                0      0.00%     98.54% # attempts to use FU when none available
system.cpu.iq.fu_full::SimdReduceAdd                0      0.00%     98.54% # attempts to use FU when none available
system.cpu.iq.fu_full::SimdReduceAlu                0      0.00%     98.54% # attempts to use FU when none available
system.cpu.iq.fu_full::SimdReduceCmp                0      0.00%     98.54% # attempts to use FU when none available
system.cpu.iq.fu_full::SimdFloatReduceAdd            0      0.00%     98.54% # attempts to use FU when none available
system.cpu.iq.fu_full::SimdFloatReduceCmp            0      0.00%     98.54% # attempts to use FU when none available
system.cpu.iq.fu_full::SimdAes                      0      0.00%     98.54% # attempts to use FU when none available
system.cpu.iq.fu_full::SimdAesMix                   0      0.00%     98.54% # attempts to use FU when none available
system.cpu.iq.fu_full::SimdSha1Hash                 0      0.00%     98.54% # attempts to use FU when none available
system.cpu.iq.fu_full::SimdSha1Hash2                0      0.00%     98.54% # attempts to use FU when none available
system.cpu.iq.fu_full::SimdSha256Hash               0      0.00%     98.54% # attempts to use FU when none available
system.cpu.iq.fu_full::SimdSha256Hash2              0      0.00%     98.54% # attempts to use FU when none available
system.cpu.iq.fu_full::SimdShaSigma2                0      0.00%     98.54% # attempts to use FU when none available
system.cpu.iq.fu_full::SimdShaSigma3                0      0.00%     98.54% # attempts to use FU when none available
system.cpu.iq.fu_full::SimdPredAlu                  0      0.00%     98.54% # attempts to use FU when none available
system.cpu.iq.fu_full::MemRead                   1288      0.81%     99.35% # attempts to use FU when none available
system.cpu.iq.fu_full::MemWrite                   769      0.48%     99.84% # attempts to use FU when none available
system.cpu.iq.fu_full::FloatMemRead                99      0.06%     99.90% # attempts to use FU when none available
system.cpu.iq.fu_full::FloatMemWrite              161      0.10%    100.00% # attempts to use FU when none available
system.cpu.iq.fu_full::IprAccess                    0      0.00%    100.00% # attempts to use FU when none available
system.cpu.iq.fu_full::InstPrefetch                 0      0.00%    100.00% # attempts to use FU when none available
system.cpu.iq.int_alu_accesses               10766097                       # Number of integer alu accesses
system.cpu.iq.int_inst_queue_reads           27704311                       # Number of integer instruction queue reads
system.cpu.iq.int_inst_queue_wakeup_accesses     10893896                       # Number of integer instruction queue wakeup accesses
system.cpu.iq.int_inst_queue_writes          11735331                       # Number of integer instruction queue writes
system.cpu.iq.iqInstsAdded                   18525866                       # Number of instructions added to the IQ (excludes non-spec)
system.cpu.iq.iqInstsIssued                  18282303                       # Number of instructions issued
system.cpu.iq.iqNonSpecInstsAdded                  24                       # Number of non-speculative instructions added to the IQ
system.cpu.iq.iqSquashedInstsExamined          614093                       # Number of squashed instructions iterated over during squash; mainly for profiling
system.cpu.iq.iqSquashedInstsIssued              2493                       # Number of squashed instructions issued
system.cpu.iq.iqSquashedNonSpecRemoved              6                       # Number of squashed non-spec instructions that were removed
system.cpu.iq.iqSquashedOperandsExamined      1033157                       # Number of squashed operands that are examined and possibly removed from graph
system.cpu.iq.issued_per_cycle::samples       5694070                       # Number of insts issued each cycle
system.cpu.iq.issued_per_cycle::mean         3.210762                       # Number of insts issued each cycle
system.cpu.iq.issued_per_cycle::stdev        2.106702                       # Number of insts issued each cycle
system.cpu.iq.issued_per_cycle::underflows            0      0.00%      0.00% # Number of insts issued each cycle
system.cpu.iq.issued_per_cycle::0              576943     10.13%     10.13% # Number of insts issued each cycle
system.cpu.iq.issued_per_cycle::1              735922     12.92%     23.06% # Number of insts issued each cycle
system.cpu.iq.issued_per_cycle::2             1091823     19.17%     42.23% # Number of insts issued each cycle
system.cpu.iq.issued_per_cycle::3              902831     15.86%     58.09% # Number of insts issued each cycle
system.cpu.iq.issued_per_cycle::4              879971     15.45%     73.54% # Number of insts issued each cycle
system.cpu.iq.issued_per_cycle::5              478226      8.40%     81.94% # Number of insts issued each cycle
system.cpu.iq.issued_per_cycle::6              573512     10.07%     92.01% # Number of insts issued each cycle
system.cpu.iq.issued_per_cycle::7              336580      5.91%     97.92% # Number of insts issued each cycle
system.cpu.iq.issued_per_cycle::8              118262      2.08%    100.00% # Number of insts issued each cycle
system.cpu.iq.issued_per_cycle::overflows            0      0.00%    100.00% # Number of insts issued each cycle
system.cpu.iq.issued_per_cycle::min_value            0                       # Number of insts issued each cycle
system.cpu.iq.issued_per_cycle::max_value            8                       # Number of insts issued each cycle
system.cpu.iq.issued_per_cycle::total         5694070                       # Number of insts issued each cycle
system.cpu.iq.rate                           3.132807                       # Inst issue rate
system.cpu.iq.vec_alu_accesses                      0                       # Number of vector alu accesses
system.cpu.iq.vec_inst_queue_reads                  0                       # Number of vector instruction queue reads
system.cpu.iq.vec_inst_queue_wakeup_accesses            0                       # Number of vector instruction queue wakeup accesses
system.cpu.iq.vec_inst_queue_writes                 0                       # Number of vector instruction queue writes
system.cpu.memDep0.conflictingLoads              3878                       # Number of conflicting loads.
system.cpu.memDep0.conflictingStores             1739                       # Number of conflicting stores.
system.cpu.memDep0.insertedLoads              2310310                       # Number of loads inserted to the mem dependence unit.
system.cpu.memDep0.insertedStores              493099                       # Number of stores inserted to the mem dependence unit.
system.cpu.misc_regfile_reads                 6114229                       # number of misc regfile reads
system.cpu.misc_regfile_writes                     18                       # number of misc regfile writes
system.cpu.numCycles                          5835758                       # number of cpu cycles simulated
system.cpu.numWorkItemsCompleted                    0                       # number of work items this cpu completed
system.cpu.numWorkItemsStarted                      0                       # number of work items this cpu started
system.cpu.timesIdled                            1536                       # Number of times that the entire CPU went into an idle state and unscheduled itself
system.cpu.workload.numSyscalls                    57                       # Number of system calls
system.membus.snoop_filter.hit_multi_requests            0                       # Number of requests hitting in the snoop filter with multiple (>1) holders of the requested data.
system.membus.snoop_filter.hit_multi_snoops            0                       # Number of snoops hitting in the snoop filter with multiple (>1) holders of the requested data.
system.membus.snoop_filter.hit_single_requests         6481                       # Number of requests hitting in the snoop filter with a single holder of the requested data.
system.membus.snoop_filter.hit_single_snoops            0                       # Number of snoops hitting in the snoop filter with a single holder of the requested data.
system.membus.snoop_filter.tot_requests         21670                       # Total number of requests made to the snoop filter.
system.membus.snoop_filter.tot_snoops               0                       # Total number of snoops made to the snoop filter.
system.tol2bus.snoop_filter.hit_multi_requests           12                       # Number of requests hitting in the snoop filter with multiple (>1) holders of the requested data.
system.tol2bus.snoop_filter.hit_multi_snoops            0                       # Number of snoops hitting in the snoop filter with multiple (>1) holders of the requested data.
system.tol2bus.snoop_filter.hit_single_requests        16288                       # Number of requests hitting in the snoop filter with a single holder of the requested data.
system.tol2bus.snoop_filter.hit_single_snoops          517                       # Number of snoops hitting in the snoop filter with a single holder of the requested data.
system.tol2bus.snoop_filter.tot_requests        33599                       # Total number of requests made to the snoop filter.
system.tol2bus.snoop_filter.tot_snoops            517                       # Total number of snoops made to the snoop filter.
system.clk_domain.clock                           250                       # Clock period in ticks
system.cpu.branchPred.lookups                 1175457                       # Number of BP lookups
system.cpu.branchPred.condPredicted            723678                       # Number of conditional branches predicted
system.cpu.branchPred.condIncorrect             13282                       # Number of conditional branches incorrect
system.cpu.branchPred.BTBLookups               358251                       # Number of BTB lookups
system.cpu.branchPred.BTBHits                  350171                       # Number of BTB hits
system.cpu.branchPred.BTBHitPct             97.744598                       # BTB Hit Percentage
system.cpu.branchPred.RASUsed                  144902                       # Number of times the RAS was used to get a target.
system.cpu.branchPred.RASIncorrect                  4                       # Number of incorrect RAS predictions.
system.cpu.branchPred.indirectLookups          149078                       # Number of indirect predictor lookups.
system.cpu.branchPred.indirectHits             141917                       # Number of indirect target hits.
system.cpu.branchPred.indirectMisses             7161                       # Number of indirect misses.
system.cpu.branchPred.indirectMispredicted         1237                       # Number of mispredicted indirect branches.
system.cpu.commit.commitSquashedInsts          604811                       # The number of squashed insts skipped by commit
system.cpu.commit.commitNonSpecStalls              18                       # The number of times commit has been forced to stall to communicate backwards
system.cpu.commit.branchMispredicts             12184                       # The number of times a branch was mispredicted
system.cpu.commit.numCommittedDist::samples      5608932                       # Number of insts commited each cycle
system.cpu.commit.numCommittedDist::mean     3.193421                       # Number of insts commited each cycle
system.cpu.commit.numCommittedDist::stdev     2.897859                       # Number of insts commited each cycle
system.cpu.commit.numCommittedDist::underflows            0      0.00%      0.00% # Number of insts commited each cycle
system.cpu.commit.numCommittedDist::0          832098     14.84%     14.84% # Number of insts commited each cycle
system.cpu.commit.numCommittedDist::1         1607920     28.67%     43.50% # Number of insts commited each cycle
system.cpu.commit.numCommittedDist::2          745050     13.28%     56.79% # Number of insts commited each cycle
system.cpu.commit.numCommittedDist::3          464399      8.28%     65.07% # Number of insts commited each cycle
system.cpu.commit.numCommittedDist::4          155132      2.77%     67.83% # Number of insts commited each cycle
system.cpu.commit.numCommittedDist::5          296987      5.29%     73.13% # Number of insts commited each cycle
system.cpu.commit.numCommittedDist::6          156446      2.79%     75.92% # Number of insts commited each cycle
system.cpu.commit.numCommittedDist::7          430877      7.68%     83.60% # Number of insts commited each cycle
system.cpu.commit.numCommittedDist::8          920023     16.40%    100.00% # Number of insts commited each cycle
system.cpu.commit.numCommittedDist::overflows            0      0.00%    100.00% # Number of insts commited each cycle
system.cpu.commit.numCommittedDist::min_value            0                       # Number of insts commited each cycle
system.cpu.commit.numCommittedDist::max_value            8                       # Number of insts commited each cycle
system.cpu.commit.numCommittedDist::total      5608932                       # Number of insts commited each cycle
system.cpu.commit.instsCommitted             10000000                       # Number of instructions committed
system.cpu.commit.opsCommitted               17911679                       # Number of ops (including micro ops) committed
system.cpu.commit.memRefs                     2712967                       # Number of memory references committed
system.cpu.commit.loads                       2242684                       # Number of loads committed
system.cpu.commit.amos                              0                       # Number of atomic instructions committed
system.cpu.commit.membars                           0                       # Number of memory barriers committed
system.cpu.commit.branches                    1090188                       # Number of branches committed
system.cpu.commit.vector                            0                       # Number of committed Vector instructions.
system.cpu.commit.floating                    7334339                       # Number of committed floating point instructions.
system.cpu.commit.integer                    12675584                       # Number of committed integer instructions.
system.cpu.commit.functionCalls                142859                       # Number of function calls committed.
system.cpu.commit.committedInstType_0::No_OpClass       304874      1.70%      1.70% # Class of committed instruction
system.cpu.commit.committedInstType_0::IntAlu      9580380     53.49%     55.19% # Class of committed instruction
system.cpu.commit.committedInstType_0::IntMult         1379      0.01%     55.20% # Class of committed instruction
system.cpu.commit.committedInstType_0::IntDiv        97485      0.54%     55.74% # Class of committed instruction
system.cpu.commit.committedInstType_0::FloatAdd       422338      2.36%     58.10% # Class of committed instruction
system.cpu.commit.committedInstType_0::FloatCmp            0      0.00%     58.10% # Class of committed instruction
system.cpu.commit.committedInstType_0::FloatCvt           32      0.00%     58.10% # Class of committed instruction
system.cpu.commit.committedInstType_0::FloatMult            0      0.00%     58.10% # Class of committed instruction
system.cpu.commit.committedInstType_0::FloatMultAcc            0      0.00%     58.10% # Class of committed instruction
system.cpu.commit.committedInstType_0::FloatDiv            0      0.00%     58.10% # Class of committed instruction
system.cpu.commit.committedInstType_0::FloatMisc            0      0.00%     58.10% # Class of committed instruction
system.cpu.commit.committedInstType_0::FloatSqrt            0      0.00%     58.10% # Class of committed instruction
system.cpu.commit.committedInstType_0::SimdAdd         2262      0.01%     58.11% # Class of committed instruction
system.cpu.commit.committedInstType_0::SimdAddAcc            0      0.00%     58.11% # Class of committed instruction
system.cpu.commit.committedInstType_0::SimdAlu       846514      4.73%     62.84% # Class of committed instruction
system.cpu.commit.committedInstType_0::SimdCmp           12      0.00%     62.84% # Class of committed instruction
system.cpu.commit.committedInstType_0::SimdCvt         4818      0.03%     62.86% # Class of committed instruction
system.cpu.commit.committedInstType_0::SimdMisc       846633      4.73%     67.59% # Class of committed instruction
system.cpu.commit.committedInstType_0::SimdMult           64      0.00%     67.59% # Class of committed instruction
system.cpu.commit.committedInstType_0::SimdMultAcc            0      0.00%     67.59% # Class of committed instruction
system.cpu.commit.committedInstType_0::SimdShift          884      0.00%     67.60% # Class of committed instruction
system.cpu.commit.committedInstType_0::SimdShiftAcc            0      0.00%     67.60% # Class of committed instruction
system.cpu.commit.committedInstType_0::SimdDiv            0      0.00%     67.60% # Class of committed instruction
system.cpu.commit.committedInstType_0::SimdSqrt            0      0.00%     67.60% # Class of committed instruction
system.cpu.commit.committedInstType_0::SimdFloatAdd      1405003      7.84%     75.44% # Class of committed instruction
system.cpu.commit.committedInstType_0::SimdFloatAlu            0      0.00%     75.44% # Class of committed instruction
system.cpu.commit.committedInstType_0::SimdFloatCmp            0      0.00%     75.44% # Class of committed instruction
system.cpu.commit.committedInstType_0::SimdFloatCvt       702543      3.92%     79.36% # Class of committed instruction
system.cpu.commit.committedInstType_0::SimdFloatDiv            2      0.00%     79.36% # Class of committed instruction
system.cpu.commit.committedInstType_0::SimdFloatMisc            0      0.00%     79.36% # Class of committed instruction
system.cpu.commit.committedInstType_0::SimdFloatMult       983489      5.49%     84.85% # Class of committed instruction
system.cpu.commit.committedInstType_0::SimdFloatMultAcc            0      0.00%     84.85% # Class of committed instruction
system.cpu.commit.committedInstType_0::SimdFloatSqrt            0      0.00%     84.85% # Class of committed instruction
system.cpu.commit.committedInstType_0::SimdReduceAdd            0      0.00%     84.85% # Class of committed instruction
system.cpu.commit.committedInstType_0::SimdReduceAlu            0      0.00%     84.85% # Class of committed instruction
system.cpu.commit.committedInstType_0::SimdReduceCmp            0      0.00%     84.85% # Class of committed instruction
system.cpu.commit.committedInstType_0::SimdFloatReduceAdd            0      0.00%     84.85% # Class of committed instruction
system.cpu.commit.committedInstType_0::SimdFloatReduceCmp            0      0.00%     84.85% # Class of committed instruction
system.cpu.commit.committedInstType_0::SimdAes            0      0.00%     84.85% # Class of committed instruction
system.cpu.commit.committedInstType_0::SimdAesMix            0      0.00%     84.85% # Class of committed instruction
system.cpu.commit.committedInstType_0::SimdSha1Hash            0      0.00%     84.85% # Class of committed instruction
system.cpu.commit.committedInstType_0::SimdSha1Hash2            0      0.00%     84.85% # Class of committed instruction
system.cpu.commit.committedInstType_0::SimdSha256Hash            0      0.00%     84.85% # Class of committed instruction
system.cpu.commit.committedInstType_0::SimdSha256Hash2            0      0.00%     84.85% # Class of committed instruction
system.cpu.commit.committedInstType_0::SimdShaSigma2            0      0.00%     84.85% # Class of committed instruction
system.cpu.commit.committedInstType_0::SimdShaSigma3            0      0.00%     84.85% # Class of committed instruction
system.cpu.commit.committedInstType_0::SimdPredAlu            0      0.00%     84.85% # Class of committed instruction
system.cpu.commit.committedInstType_0::MemRead       692034      3.86%     88.72% # Class of committed instruction
system.cpu.commit.committedInstType_0::MemWrite       463876      2.59%     91.31% # Class of committed instruction
system.cpu.commit.committedInstType_0::FloatMemRead      1550650      8.66%     99.96% # Class of committed instruction
system.cpu.commit.committedInstType_0::FloatMemWrite         6407      0.04%    100.00% # Class of committed instruction
system.cpu.commit.committedInstType_0::IprAccess            0      0.00%    100.00% # Class of committed instruction
system.cpu.commit.committedInstType_0::InstPrefetch            0      0.00%    100.00% # Class of committed instruction
system.cpu.commit.committedInstType_0::total     17911679                       # Class of committed instruction
system.cpu.commit.commitEligibleSamples        920023                       # number cycles where commit BW limit reached
system.cpu.dcache.demand_hits::.cpu.data      2589471                       # number of demand (read+write) hits
system.cpu.dcache.demand_hits::total          2589471                       # number of demand (read+write) hits
system.cpu.dcache.overall_hits::.cpu.data      2589471                       # number of overall hits
system.cpu.dcache.overall_hits::total         2589471                       # number of overall hits
system.cpu.dcache.demand_misses::.cpu.data        26315                       # number of demand (read+write) misses
system.cpu.dcache.demand_misses::total          26315                       # number of demand (read+write) misses
system.cpu.dcache.overall_misses::.cpu.data        26315                       # number of overall misses
system.cpu.dcache.overall_misses::total         26315                       # number of overall misses
system.cpu.dcache.demand_miss_latency::.cpu.data   1544548991                       # number of demand (read+write) miss cycles
system.cpu.dcache.demand_miss_latency::total   1544548991                       # number of demand (read+write) miss cycles
system.cpu.dcache.overall_miss_latency::.cpu.data   1544548991                       # number of overall miss cycles
system.cpu.dcache.overall_miss_latency::total   1544548991                       # number of overall miss cycles
system.cpu.dcache.demand_accesses::.cpu.data      2615786                       # number of demand (read+write) accesses
system.cpu.dcache.demand_accesses::total      2615786                       # number of demand (read+write) accesses
system.cpu.dcache.overall_accesses::.cpu.data      2615786                       # number of overall (read+write) accesses
system.cpu.dcache.overall_accesses::total      2615786                       # number of overall (read+write) accesses
system.cpu.dcache.demand_miss_rate::.cpu.data     0.010060                       # miss rate for demand accesses
system.cpu.dcache.demand_miss_rate::total     0.010060                       # miss rate for demand accesses
system.cpu.dcache.overall_miss_rate::.cpu.data     0.010060                       # miss rate for overall accesses
system.cpu.dcache.overall_miss_rate::total     0.010060                       # miss rate for overall accesses
system.cpu.dcache.demand_avg_miss_latency::.cpu.data 58694.622497                       # average overall miss latency
system.cpu.dcache.demand_avg_miss_latency::total 58694.622497                       # average overall miss latency
system.cpu.dcache.overall_avg_miss_latency::.cpu.data 58694.622497                       # average overall miss latency
system.cpu.dcache.overall_avg_miss_latency::total 58694.622497                       # average overall miss latency
system.cpu.dcache.blocked_cycles::no_mshrs        19717                       # number of cycles access was blocked
system.cpu.dcache.blocked_cycles::no_targets            4                       # number of cycles access was blocked
system.cpu.dcache.blocked::no_mshrs               494                       # number of cycles access was blocked
system.cpu.dcache.blocked::no_targets               1                       # number of cycles access was blocked
system.cpu.dcache.avg_blocked_cycles::no_mshrs    39.912955                       # average number of cycles each access was blocked
system.cpu.dcache.avg_blocked_cycles::no_targets            4                       # average number of cycles each access was blocked
system.cpu.dcache.writebacks::.writebacks        11005                       # number of writebacks
system.cpu.dcache.writebacks::total             11005                       # number of writebacks
system.cpu.dcache.demand_mshr_hits::.cpu.data        11615                       # number of demand (read+write) MSHR hits
system.cpu.dcache.demand_mshr_hits::total        11615                       # number of demand (read+write) MSHR hits
system.cpu.dcache.overall_mshr_hits::.cpu.data        11615                       # number of overall MSHR hits
system.cpu.dcache.overall_mshr_hits::total        11615                       # number of overall MSHR hits
system.cpu.dcache.demand_mshr_misses::.cpu.data        14700                       # number of demand (read+write) MSHR misses
system.cpu.dcache.demand_mshr_misses::total        14700                       # number of demand (read+write) MSHR misses
system.cpu.dcache.overall_mshr_misses::.cpu.data        14700                       # number of overall MSHR misses
system.cpu.dcache.overall_mshr_misses::total        14700                       # number of overall MSHR misses
system.cpu.dcache.demand_mshr_miss_latency::.cpu.data    946149492                       # number of demand (read+write) MSHR miss cycles
system.cpu.dcache.demand_mshr_miss_latency::total    946149492                       # number of demand (read+write) MSHR miss cycles
system.cpu.dcache.overall_mshr_miss_latency::.cpu.data    946149492                       # number of overall MSHR miss cycles
system.cpu.dcache.overall_mshr_miss_latency::total    946149492                       # number of overall MSHR miss cycles
system.cpu.dcache.demand_mshr_miss_rate::.cpu.data     0.005620                       # mshr miss rate for demand accesses
system.cpu.dcache.demand_mshr_miss_rate::total     0.005620                       # mshr miss rate for demand accesses
system.cpu.dcache.overall_mshr_miss_rate::.cpu.data     0.005620                       # mshr miss rate for overall accesses
system.cpu.dcache.overall_mshr_miss_rate::total     0.005620                       # mshr miss rate for overall accesses
system.cpu.dcache.demand_avg_mshr_miss_latency::.cpu.data 64363.911020                       # average overall mshr miss latency
system.cpu.dcache.demand_avg_mshr_miss_latency::total 64363.911020                       # average overall mshr miss latency
system.cpu.dcache.overall_avg_mshr_miss_latency::.cpu.data 64363.911020                       # average overall mshr miss latency
system.cpu.dcache.overall_avg_mshr_miss_latency::total 64363.911020                       # average overall mshr miss latency
system.cpu.dcache.replacements                  14188                       # number of replacements
system.cpu.dcache.ReadReq_hits::.cpu.data      2129882                       # number of ReadReq hits
system.cpu.dcache.ReadReq_hits::total         2129882                       # number of ReadReq hits
system.cpu.dcache.ReadReq_misses::.cpu.data        15599                       # number of ReadReq misses
system.cpu.dcache.ReadReq_misses::total         15599                       # number of ReadReq misses
system.cpu.dcache.ReadReq_miss_latency::.cpu.data    791896000                       # number of ReadReq miss cycles
system.cpu.dcache.ReadReq_miss_latency::total    791896000                       # number of ReadReq miss cycles
system.cpu.dcache.ReadReq_accesses::.cpu.data      2145481                       # number of ReadReq accesses(hits+misses)
system.cpu.dcache.ReadReq_accesses::total      2145481                       # number of ReadReq accesses(hits+misses)
system.cpu.dcache.ReadReq_miss_rate::.cpu.data     0.007271                       # miss rate for ReadReq accesses
system.cpu.dcache.ReadReq_miss_rate::total     0.007271                       # miss rate for ReadReq accesses
system.cpu.dcache.ReadReq_avg_miss_latency::.cpu.data 50765.818322                       # average ReadReq miss latency
system.cpu.dcache.ReadReq_avg_miss_latency::total 50765.818322                       # average ReadReq miss latency
system.cpu.dcache.ReadReq_mshr_hits::.cpu.data        11610                       # number of ReadReq MSHR hits
system.cpu.dcache.ReadReq_mshr_hits::total        11610                       # number of ReadReq MSHR hits
system.cpu.dcache.ReadReq_mshr_misses::.cpu.data         3989                       # number of ReadReq MSHR misses
system.cpu.dcache.ReadReq_mshr_misses::total         3989                       # number of ReadReq MSHR misses
system.cpu.dcache.ReadReq_mshr_miss_latency::.cpu.data    204418500                       # number of ReadReq MSHR miss cycles
system.cpu.dcache.ReadReq_mshr_miss_latency::total    204418500                       # number of ReadReq MSHR miss cycles
system.cpu.dcache.ReadReq_mshr_miss_rate::.cpu.data     0.001859                       # mshr miss rate for ReadReq accesses
system.cpu.dcache.ReadReq_mshr_miss_rate::total     0.001859                       # mshr miss rate for ReadReq accesses
system.cpu.dcache.ReadReq_avg_mshr_miss_latency::.cpu.data 51245.550263                       # average ReadReq mshr miss latency
system.cpu.dcache.ReadReq_avg_mshr_miss_latency::total 51245.550263                       # average ReadReq mshr miss latency
system.cpu.dcache.WriteReq_hits::.cpu.data       459589                       # number of WriteReq hits
system.cpu.dcache.WriteReq_hits::total         459589                       # number of WriteReq hits
system.cpu.dcache.WriteReq_misses::.cpu.data        10716                       # number of WriteReq misses
system.cpu.dcache.WriteReq_misses::total        10716                       # number of WriteReq misses
system.cpu.dcache.WriteReq_miss_latency::.cpu.data    752652991                       # number of WriteReq miss cycles
system.cpu.dcache.WriteReq_miss_latency::total    752652991                       # number of WriteReq miss cycles
system.cpu.dcache.WriteReq_accesses::.cpu.data       470305                       # number of WriteReq accesses(hits+misses)
system.cpu.dcache.WriteReq_accesses::total       470305                       # number of WriteReq accesses(hits+misses)
system.cpu.dcache.WriteReq_miss_rate::.cpu.data     0.022785                       # miss rate for WriteReq accesses
system.cpu.dcache.WriteReq_miss_rate::total     0.022785                       # miss rate for WriteReq accesses
system.cpu.dcache.WriteReq_avg_miss_latency::.cpu.data 70236.374673                       # average WriteReq miss latency
system.cpu.dcache.WriteReq_avg_miss_latency::total 70236.374673                       # average WriteReq miss latency
system.cpu.dcache.WriteReq_mshr_hits::.cpu.data            5                       # number of WriteReq MSHR hits
system.cpu.dcache.WriteReq_mshr_hits::total            5                       # number of WriteReq MSHR hits
system.cpu.dcache.WriteReq_mshr_misses::.cpu.data        10711                       # number of WriteReq MSHR misses
system.cpu.dcache.WriteReq_mshr_misses::total        10711                       # number of WriteReq MSHR misses
system.cpu.dcache.WriteReq_mshr_miss_latency::.cpu.data    741730992                       # number of WriteReq MSHR miss cycles
system.cpu.dcache.WriteReq_mshr_miss_latency::total    741730992                       # number of WriteReq MSHR miss cycles
system.cpu.dcache.WriteReq_mshr_miss_rate::.cpu.data     0.022775                       # mshr miss rate for WriteReq accesses
system.cpu.dcache.WriteReq_mshr_miss_rate::total     0.022775                       # mshr miss rate for WriteReq accesses
system.cpu.dcache.WriteReq_avg_mshr_miss_latency::.cpu.data 69249.462422                       # average WriteReq mshr miss latency
system.cpu.dcache.WriteReq_avg_mshr_miss_latency::total 69249.462422                       # average WriteReq mshr miss latency
system.cpu.dcache.power_state.pwrStateResidencyTicks::UNDEFINED   2917878500                       # Cumulative time (in ticks) in various power states
system.cpu.dcache.tags.tagsinuse           506.540403                       # Cycle average of tags in use
system.cpu.dcache.tags.total_refs             2604171                       # Total number of references to valid blocks.
system.cpu.dcache.tags.sampled_refs             14700                       # Sample count of references to valid blocks.
system.cpu.dcache.tags.avg_refs            177.154490                       # Average number of references to valid blocks.
system.cpu.dcache.tags.warmup_cycle            163000                       # Cycle when the warmup percentage was hit.
system.cpu.dcache.tags.occ_blocks::.cpu.data   506.540403                       # Average occupied blocks per requestor
system.cpu.dcache.tags.occ_percent::.cpu.data     0.989337                       # Average percentage of cache occupancy
system.cpu.dcache.tags.occ_percent::total     0.989337                       # Average percentage of cache occupancy
system.cpu.dcache.tags.occ_task_id_blocks::1024          512                       # Occupied blocks per task id
system.cpu.dcache.tags.age_task_id_blocks_1024::0           38                       # Occupied blocks per task id
system.cpu.dcache.tags.age_task_id_blocks_1024::1          326                       # Occupied blocks per task id
system.cpu.dcache.tags.age_task_id_blocks_1024::2          140                       # Occupied blocks per task id
system.cpu.dcache.tags.age_task_id_blocks_1024::3            8                       # Occupied blocks per task id
system.cpu.dcache.tags.occ_task_id_percent::1024            1                       # Percentage of cache occupancy per task id
system.cpu.dcache.tags.tag_accesses           5246272                       # Number of tag accesses
system.cpu.dcache.tags.data_accesses          5246272                       # Number of data accesses
system.cpu.dcache.tags.power_state.pwrStateResidencyTicks::UNDEFINED   2917878500                       # Cumulative time (in ticks) in various power states
system.cpu.decode.idleCycles                   703663                       # Number of cycles decode is idle
system.cpu.decode.blockedCycles               2610501                       # Number of cycles decode is blocked
system.cpu.decode.runCycles                   1064448                       # Number of cycles decode is running
system.cpu.decode.unblockCycles               1302787                       # Number of cycles decode is unblocking
system.cpu.decode.squashCycles                  12671                       # Number of cycles decode is squashing
system.cpu.decode.branchResolved               344858                       # Number of times decode resolved a  branch
system.cpu.decode.branchMispred                  1536                       # Number of times decode detected a branch misprediction
system.cpu.decode.decodedInsts               18666486                       # Number of instructions handled by decode
system.cpu.decode.squashedInsts                  7751                       # Number of squashed instructions handled by decode
system.cpu.dtb.rdAccesses                     2294196                       # TLB accesses on read requests
system.cpu.dtb.wrAccesses                      483501                       # TLB accesses on write requests
system.cpu.dtb.rdMisses                           588                       # TLB misses on read requests
system.cpu.dtb.wrMisses                           683                       # TLB misses on write requests
system.cpu.dtb.walker.power_state.pwrStateResidencyTicks::UNDEFINED   2917878500                       # Cumulative time (in ticks) in various power states
system.cpu.dtb_walker_cache.blocked_cycles::no_mshrs            0                       # number of cycles access was blocked
system.cpu.dtb_walker_cache.blocked_cycles::no_targets            0                       # number of cycles access was blocked
system.cpu.dtb_walker_cache.blocked::no_mshrs            0                       # number of cycles access was blocked
system.cpu.dtb_walker_cache.blocked::no_targets            0                       # number of cycles access was blocked
system.cpu.dtb_walker_cache.avg_blocked_cycles::no_mshrs          nan                       # average number of cycles each access was blocked
system.cpu.dtb_walker_cache.avg_blocked_cycles::no_targets          nan                       # average number of cycles each access was blocked
system.cpu.dtb_walker_cache.replacements            0                       # number of replacements
system.cpu.dtb_walker_cache.power_state.pwrStateResidencyTicks::UNDEFINED   2917878500                       # Cumulative time (in ticks) in various power states
system.cpu.dtb_walker_cache.tags.tagsinuse            0                       # Cycle average of tags in use
system.cpu.dtb_walker_cache.tags.total_refs            0                       # Total number of references to valid blocks.
system.cpu.dtb_walker_cache.tags.sampled_refs            0                       # Sample count of references to valid blocks.
system.cpu.dtb_walker_cache.tags.avg_refs          nan                       # Average number of references to valid blocks.
system.cpu.dtb_walker_cache.tags.warmup_cycle            0                       # Cycle when the warmup percentage was hit.
system.cpu.dtb_walker_cache.tags.tag_accesses            0                       # Number of tag accesses
system.cpu.dtb_walker_cache.tags.data_accesses            0                       # Number of data accesses
system.cpu.dtb_walker_cache.tags.power_state.pwrStateResidencyTicks::UNDEFINED   2917878500                       # Cumulative time (in ticks) in various power states
system.cpu.fetch.icacheStallCycles            1319768                       # Number of cycles fetch is stalled on an Icache miss
system.cpu.fetch.insts                       10436229                       # Number of instructions fetch has processed
system.cpu.fetch.branches                     1175457                       # Number of branches that fetch encountered
system.cpu.fetch.predictedBranches             636990                       # Number of branches that fetch has predicted taken
system.cpu.fetch.cycles                       4356284                       # Number of cycles fetch has run and was not squashing or blocked
system.cpu.fetch.squashCycles                   28342                       # Number of cycles fetch has spent squashing
system.cpu.fetch.miscStallCycles                  468                       # Number of cycles fetch has spent waiting on interrupts,or bad addresses, or out of MSHRs
system.cpu.fetch.pendingTrapStallCycles          3293                       # Number of stall cycles due to pending traps
system.cpu.fetch.pendingQuiesceStallCycles            9                       # Number of stall cycles due to pending quiesce instructions
system.cpu.fetch.icacheWaitRetryStallCycles           77                       # Number of stall cycles due to full MSHR
system.cpu.fetch.cacheLines                   1247004                       # Number of cache lines fetched
system.cpu.fetch.icacheSquashes                  3963                       # Number of outstanding Icache misses that were squashed
system.cpu.fetch.nisnDist::samples            5694070                       # Number of instructions fetched each cycle (Total)
system.cpu.fetch.nisnDist::mean              3.311754                       # Number of instructions fetched each cycle (Total)
system.cpu.fetch.nisnDist::stdev             3.555139                       # Number of instructions fetched each cycle (Total)
system.cpu.fetch.nisnDist::underflows               0      0.00%      0.00% # Number of instructions fetched each cycle (Total)
system.cpu.fetch.nisnDist::0                  2536099     44.54%     44.54% # Number of instructions fetched each cycle (Total)
system.cpu.fetch.nisnDist::1                   266345      4.68%     49.22% # Number of instructions fetched each cycle (Total)
system.cpu.fetch.nisnDist::2                   375655      6.60%     55.81% # Number of instructions fetched each cycle (Total)
system.cpu.fetch.nisnDist::3                   116981      2.05%     57.87% # Number of instructions fetched each cycle (Total)
system.cpu.fetch.nisnDist::4                   225448      3.96%     61.83% # Number of instructions fetched each cycle (Total)
system.cpu.fetch.nisnDist::5                   121649      2.14%     63.96% # Number of instructions fetched each cycle (Total)
system.cpu.fetch.nisnDist::6                    86671      1.52%     65.49% # Number of instructions fetched each cycle (Total)
system.cpu.fetch.nisnDist::7                   263080      4.62%     70.11% # Number of instructions fetched each cycle (Total)
system.cpu.fetch.nisnDist::8                  1702142     29.89%    100.00% # Number of instructions fetched each cycle (Total)
system.cpu.fetch.nisnDist::overflows                0      0.00%    100.00% # Number of instructions fetched each cycle (Total)
system.cpu.fetch.nisnDist::min_value                0                       # Number of instructions fetched each cycle (Total)
system.cpu.fetch.nisnDist::max_value                8                       # Number of instructions fetched each cycle (Total)
system.cpu.fetch.nisnDist::total              5694070                       # Number of instructions fetched each cycle (Total)
system.cpu.fetch.branchRate                  0.201423                       # Number of branch fetches per cycle
system.cpu.fetch.rate                        1.788324                       # Number of inst fetches per cycle
system.cpu.icache.demand_hits::.cpu.inst      1243625                       # number of demand (read+write) hits
system.cpu.icache.demand_hits::total          1243625                       # number of demand (read+write) hits
system.cpu.icache.overall_hits::.cpu.inst      1243625                       # number of overall hits
system.cpu.icache.overall_hits::total         1243625                       # number of overall hits
system.cpu.icache.demand_misses::.cpu.inst         3379                       # number of demand (read+write) misses
system.cpu.icache.demand_misses::total           3379                       # number of demand (read+write) misses
system.cpu.icache.overall_misses::.cpu.inst         3379                       # number of overall misses
system.cpu.icache.overall_misses::total          3379                       # number of overall misses
system.cpu.icache.demand_miss_latency::.cpu.inst    198360500                       # number of demand (read+write) miss cycles
system.cpu.icache.demand_miss_latency::total    198360500                       # number of demand (read+write) miss cycles
system.cpu.icache.overall_miss_latency::.cpu.inst    198360500                       # number of overall miss cycles
system.cpu.icache.overall_miss_latency::total    198360500                       # number of overall miss cycles
system.cpu.icache.demand_accesses::.cpu.inst      1247004                       # number of demand (read+write) accesses
system.cpu.icache.demand_accesses::total      1247004                       # number of demand (read+write) accesses
system.cpu.icache.overall_accesses::.cpu.inst      1247004                       # number of overall (read+write) accesses
system.cpu.icache.overall_accesses::total      1247004                       # number of overall (read+write) accesses
system.cpu.icache.demand_miss_rate::.cpu.inst     0.002710                       # miss rate for demand accesses
system.cpu.icache.demand_miss_rate::total     0.002710                       # miss rate for demand accesses
system.cpu.icache.overall_miss_rate::.cpu.inst     0.002710                       # miss rate for overall accesses
system.cpu.icache.overall_miss_rate::total     0.002710                       # miss rate for overall accesses
system.cpu.icache.demand_avg_miss_latency::.cpu.inst 58703.906481                       # average overall miss latency
system.cpu.icache.demand_avg_miss_latency::total 58703.906481                       # average overall miss latency
system.cpu.icache.overall_avg_miss_latency::.cpu.inst 58703.906481                       # average overall miss latency
system.cpu.icache.overall_avg_miss_latency::total 58703.906481                       # average overall miss latency
system.cpu.icache.blocked_cycles::no_mshrs          726                       # number of cycles access was blocked
system.cpu.icache.blocked_cycles::no_targets            0                       # number of cycles access was blocked
system.cpu.icache.blocked::no_mshrs                15                       # number of cycles access was blocked
system.cpu.icache.blocked::no_targets               0                       # number of cycles access was blocked
system.cpu.icache.avg_blocked_cycles::no_mshrs    48.400000                       # average number of cycles each access was blocked
system.cpu.icache.avg_blocked_cycles::no_targets          nan                       # average number of cycles each access was blocked
system.cpu.icache.writebacks::.writebacks         2100                       # number of writebacks
system.cpu.icache.writebacks::total              2100                       # number of writebacks
system.cpu.icache.demand_mshr_hits::.cpu.inst          768                       # number of demand (read+write) MSHR hits
system.cpu.icache.demand_mshr_hits::total          768                       # number of demand (read+write) MSHR hits
system.cpu.icache.overall_mshr_hits::.cpu.inst          768                       # number of overall MSHR hits
system.cpu.icache.overall_mshr_hits::total          768                       # number of overall MSHR hits
system.cpu.icache.demand_mshr_misses::.cpu.inst         2611                       # number of demand (read+write) MSHR misses
system.cpu.icache.demand_mshr_misses::total         2611                       # number of demand (read+write) MSHR misses
system.cpu.icache.overall_mshr_misses::.cpu.inst         2611                       # number of overall MSHR misses
system.cpu.icache.overall_mshr_misses::total         2611                       # number of overall MSHR misses
system.cpu.icache.demand_mshr_miss_latency::.cpu.inst    156369000                       # number of demand (read+write) MSHR miss cycles
system.cpu.icache.demand_mshr_miss_latency::total    156369000                       # number of demand (read+write) MSHR miss cycles
system.cpu.icache.overall_mshr_miss_latency::.cpu.inst    156369000                       # number of overall MSHR miss cycles
system.cpu.icache.overall_mshr_miss_latency::total    156369000                       # number of overall MSHR miss cycles
system.cpu.icache.demand_mshr_miss_rate::.cpu.inst     0.002094                       # mshr miss rate for demand accesses
system.cpu.icache.demand_mshr_miss_rate::total     0.002094                       # mshr miss rate for demand accesses
system.cpu.icache.overall_mshr_miss_rate::.cpu.inst     0.002094                       # mshr miss rate for overall accesses
system.cpu.icache.overall_mshr_miss_rate::total     0.002094                       # mshr miss rate for overall accesses
system.cpu.icache.demand_avg_mshr_miss_latency::.cpu.inst 59888.548449                       # average overall mshr miss latency
system.cpu.icache.demand_avg_mshr_miss_latency::total 59888.548449                       # average overall mshr miss latency
system.cpu.icache.overall_avg_mshr_miss_latency::.cpu.inst 59888.548449                       # average overall mshr miss latency
system.cpu.icache.overall_avg_mshr_miss_latency::total 59888.548449                       # average overall mshr miss latency
system.cpu.icache.replacements                   2100                       # number of replacements
system.cpu.icache.ReadReq_hits::.cpu.inst      1243625                       # number of ReadReq hits
system.cpu.icache.ReadReq_hits::total         1243625                       # number of ReadReq hits
system.cpu.icache.ReadReq_misses::.cpu.inst         3379                       # number of ReadReq misses
system.cpu.icache.ReadReq_misses::total          3379                       # number of ReadReq misses
system.cpu.icache.ReadReq_miss_latency::.cpu.inst    198360500                       # number of ReadReq miss cycles
system.cpu.icache.ReadReq_miss_latency::total    198360500                       # number of ReadReq miss cycles
system.cpu.icache.ReadReq_accesses::.cpu.inst      1247004                       # number of ReadReq accesses(hits+misses)
system.cpu.icache.ReadReq_accesses::total      1247004                       # number of ReadReq accesses(hits+misses)
system.cpu.icache.ReadReq_miss_rate::.cpu.inst     0.002710                       # miss rate for ReadReq accesses
system.cpu.icache.ReadReq_miss_rate::total     0.002710                       # miss rate for ReadReq accesses
system.cpu.icache.ReadReq_avg_miss_latency::.cpu.inst 58703.906481                       # average ReadReq miss latency
system.cpu.icache.ReadReq_avg_miss_latency::total 58703.906481                       # average ReadReq miss latency
system.cpu.icache.ReadReq_mshr_hits::.cpu.inst          768                       # number of ReadReq MSHR hits
system.cpu.icache.ReadReq_mshr_hits::total          768                       # number of ReadReq MSHR hits
system.cpu.icache.ReadReq_mshr_misses::.cpu.inst         2611                       # number of ReadReq MSHR misses
system.cpu.icache.ReadReq_mshr_misses::total         2611                       # number of ReadReq MSHR misses
system.cpu.icache.ReadReq_mshr_miss_latency::.cpu.inst    156369000                       # number of ReadReq MSHR miss cycles
system.cpu.icache.ReadReq_mshr_miss_latency::total    156369000                       # number of ReadReq MSHR miss cycles
system.cpu.icache.ReadReq_mshr_miss_rate::.cpu.inst     0.002094                       # mshr miss rate for ReadReq accesses
system.cpu.icache.ReadReq_mshr_miss_rate::total     0.002094                       # mshr miss rate for ReadReq accesses
system.cpu.icache.ReadReq_avg_mshr_miss_latency::.cpu.inst 59888.548449                       # average ReadReq mshr miss latency
system.cpu.icache.ReadReq_avg_mshr_miss_latency::total 59888.548449                       # average ReadReq mshr miss latency
system.cpu.icache.power_state.pwrStateResidencyTicks::UNDEFINED   2917878500                       # Cumulative time (in ticks) in various power states
system.cpu.icache.tags.tagsinuse           505.239005                       # Cycle average of tags in use
system.cpu.icache.tags.total_refs             1246236                       # Total number of references to valid blocks.
system.cpu.icache.tags.sampled_refs              2611                       # Sample count of references to valid blocks.
system.cpu.icache.tags.avg_refs            477.302183                       # Average number of references to valid blocks.
system.cpu.icache.tags.warmup_cycle             79500                       # Cycle when the warmup percentage was hit.
system.cpu.icache.tags.occ_blocks::.cpu.inst   505.239005                       # Average occupied blocks per requestor
system.cpu.icache.tags.occ_percent::.cpu.inst     0.986795                       # Average percentage of cache occupancy
system.cpu.icache.tags.occ_percent::total     0.986795                       # Average percentage of cache occupancy
system.cpu.icache.tags.occ_task_id_blocks::1024          511                       # Occupied blocks per task id
system.cpu.icache.tags.age_task_id_blocks_1024::3          511                       # Occupied blocks per task id
system.cpu.icache.tags.occ_task_id_percent::1024     0.998047                       # Percentage of cache occupancy per task id
system.cpu.icache.tags.tag_accesses           2496619                       # Number of tag accesses
system.cpu.icache.tags.data_accesses          2496619                       # Number of data accesses
system.cpu.icache.tags.power_state.pwrStateResidencyTicks::UNDEFINED   2917878500                       # Cumulative time (in ticks) in various power states
system.cpu.interrupts.clk_domain.clock           8000                       # Clock period in ticks
system.cpu.itb.rdAccesses                           0                       # TLB accesses on read requests
system.cpu.itb.wrAccesses                     1247508                       # TLB accesses on write requests
system.cpu.itb.rdMisses                             0                       # TLB misses on read requests
system.cpu.itb.wrMisses                           727                       # TLB misses on write requests
system.cpu.itb.walker.power_state.pwrStateResidencyTicks::UNDEFINED   2917878500                       # Cumulative time (in ticks) in various power states
system.cpu.itb_walker_cache.blocked_cycles::no_mshrs            0                       # number of cycles access was blocked
system.cpu.itb_walker_cache.blocked_cycles::no_targets            0                       # number of cycles access was blocked
system.cpu.itb_walker_cache.blocked::no_mshrs            0                       # number of cycles access was blocked
system.cpu.itb_walker_cache.blocked::no_targets            0                       # number of cycles access was blocked
system.cpu.itb_walker_cache.avg_blocked_cycles::no_mshrs          nan                       # average number of cycles each access was blocked
system.cpu.itb_walker_cache.avg_blocked_cycles::no_targets          nan                       # average number of cycles each access was blocked
system.cpu.itb_walker_cache.replacements            0                       # number of replacements
system.cpu.itb_walker_cache.power_state.pwrStateResidencyTicks::UNDEFINED   2917878500                       # Cumulative time (in ticks) in various power states
system.cpu.itb_walker_cache.tags.tagsinuse            0                       # Cycle average of tags in use
system.cpu.itb_walker_cache.tags.total_refs            0                       # Total number of references to valid blocks.
system.cpu.itb_walker_cache.tags.sampled_refs            0                       # Sample count of references to valid blocks.
system.cpu.itb_walker_cache.tags.avg_refs          nan                       # Average number of references to valid blocks.
system.cpu.itb_walker_cache.tags.warmup_cycle            0                       # Cycle when the warmup percentage was hit.
system.cpu.itb_walker_cache.tags.tag_accesses            0                       # Number of tag accesses
system.cpu.itb_walker_cache.tags.data_accesses            0                       # Number of data accesses
system.cpu.itb_walker_cache.tags.power_state.pwrStateResidencyTicks::UNDEFINED   2917878500                       # Cumulative time (in ticks) in various power states
system.cpu.lsq0.forwLoads                      148227                       # Number of loads that had data forwarded from stores
system.cpu.lsq0.squashedLoads                   67611                       # Number of loads squashed
system.cpu.lsq0.ignoredResponses                   76                       # Number of memory responses ignored because the instruction is squashed
system.cpu.lsq0.memOrderViolation                 153                       # Number of memory ordering violations
system.cpu.lsq0.squashedStores                  22813                       # Number of stores squashed
system.cpu.lsq0.rescheduledLoads                   27                       # Number of loads that were rescheduled
system.cpu.lsq0.blockedByCache                    376                       # Number of times an access to memory failed due to the cache being blocked
system.cpu.power_state.pwrStateResidencyTicks::ON   2917878500                       # Cumulative time (in ticks) in various power states
system.cpu.rename.squashCycles                  12671                       # Number of cycles rename is squashing
system.cpu.rename.idleCycles                  1087660                       # Number of cycles rename is idle
system.cpu.rename.blockCycles                  280644                       # Number of cycles rename is blocking
system.cpu.rename.serializeStallCycles           3118                       # count of cycles rename stalledfor serializing inst
system.cpu.rename.runCycles                   1978619                       # Number of cycles rename is running
system.cpu.rename.unblockCycles               2331358                       # Number of cycles rename is unblocking
system.cpu.rename.renamedInsts               18612666                       # Number of instructions processed by rename
system.cpu.rename.ROBFullEvents                  2945                       # Number of times rename has blocked due to ROB full
system.cpu.rename.IQFullEvents                1869459                       # Number of times rename has blocked due to IQ full
system.cpu.rename.LQFullEvents                   1344                       # Number of times rename has blocked due to LQ full
system.cpu.rename.SQFullEvents                 162064                       # Number of times rename has blocked due to SQ full
system.cpu.rename.renamedOperands            21300414                       # Number of destination operands rename has renamed
system.cpu.rename.lookups                    43170293                       # Number of register rename lookups that rename has made
system.cpu.rename.intLookups                 19387879                       # Number of integer rename lookups
system.cpu.rename.fpLookups                  12330681                       # Number of floating rename lookups
system.cpu.rename.committedMaps              20388214                       # Number of HB maps that are committed
system.cpu.rename.undoneMaps                   912052                       # Number of HB maps that are undone due to squashing
system.cpu.rename.serializing                      41                       # count of serializing insts renamed
system.cpu.rename.tempSerializing                  24                       # count of temporary serializing insts renamed
system.cpu.rename.skidInsts                   5299175                       # count of insts added to the skid buffer
system.cpu.rob.reads                         23200667                       # The number of ROB reads
system.cpu.rob.writes                        37118595                       # The number of ROB writes
system.cpu.thread_0.numInsts                 10000000                       # Number of Instructions committed
system.cpu.thread_0.numOps                   17911679                       # Number of Ops committed
system.cpu.thread_0.numMemRefs                      0                       # Number of Memory References
system.cpu_clk_domain.clock                       500                       # Clock period in ticks
system.cpu_voltage_domain.voltage                   1                       # Voltage in Volts
system.l2.demand_hits::.cpu.inst                  470                       # number of demand (read+write) hits
system.l2.demand_hits::.cpu.data                 1650                       # number of demand (read+write) hits
system.l2.demand_hits::total                     2120                       # number of demand (read+write) hits
system.l2.overall_hits::.cpu.inst                 470                       # number of overall hits
system.l2.overall_hits::.cpu.data                1650                       # number of overall hits
system.l2.overall_hits::total                    2120                       # number of overall hits
system.l2.demand_misses::.cpu.inst               2139                       # number of demand (read+write) misses
system.l2.demand_misses::.cpu.data              13050                       # number of demand (read+write) misses
system.l2.demand_misses::total                  15189                       # number of demand (read+write) misses
system.l2.overall_misses::.cpu.inst              2139                       # number of overall misses
system.l2.overall_misses::.cpu.data             13050                       # number of overall misses
system.l2.overall_misses::total                 15189                       # number of overall misses
system.l2.demand_miss_latency::.cpu.inst    147385000                       # number of demand (read+write) miss cycles
system.l2.demand_miss_latency::.cpu.data    906419500                       # number of demand (read+write) miss cycles
system.l2.demand_miss_latency::total       1053804500                       # number of demand (read+write) miss cycles
system.l2.overall_miss_latency::.cpu.inst    147385000                       # number of overall miss cycles
system.l2.overall_miss_latency::.cpu.data    906419500                       # number of overall miss cycles
system.l2.overall_miss_latency::total      1053804500                       # number of overall miss cycles
system.l2.demand_accesses::.cpu.inst             2609                       # number of demand (read+write) accesses
system.l2.demand_accesses::.cpu.data            14700                       # number of demand (read+write) accesses
system.l2.demand_accesses::total                17309                       # number of demand (read+write) accesses
system.l2.overall_accesses::.cpu.inst            2609                       # number of overall (read+write) accesses
system.l2.overall_accesses::.cpu.data           14700                       # number of overall (read+write) accesses
system.l2.overall_accesses::total               17309                       # number of overall (read+write) accesses
system.l2.demand_miss_rate::.cpu.inst        0.819854                       # miss rate for demand accesses
system.l2.demand_miss_rate::.cpu.data        0.887755                       # miss rate for demand accesses
system.l2.demand_miss_rate::total            0.877520                       # miss rate for demand accesses
system.l2.overall_miss_rate::.cpu.inst       0.819854                       # miss rate for overall accesses
system.l2.overall_miss_rate::.cpu.data       0.887755                       # miss rate for overall accesses
system.l2.overall_miss_rate::total           0.877520                       # miss rate for overall accesses
system.l2.demand_avg_miss_latency::.cpu.inst 68903.693315                       # average overall miss latency
system.l2.demand_avg_miss_latency::.cpu.data 69457.432950                       # average overall miss latency
system.l2.demand_avg_miss_latency::total 69379.452235                       # average overall miss latency
system.l2.overall_avg_miss_latency::.cpu.inst 68903.693315                       # average overall miss latency
system.l2.overall_avg_miss_latency::.cpu.data 69457.432950                       # average overall miss latency
system.l2.overall_avg_miss_latency::total 69379.452235                       # average overall miss latency
system.l2.blocked_cycles::no_mshrs                  0                       # number of cycles access was blocked
[...]
system.mem_ctrls.dram.bw_total::.cpu.data    286235359                       # Total bandwidth to/from this memory (bytes/s)
system.mem_ctrls.dram.bw_total::total       385046876                       # Total bandwidth to/from this memory (bytes/s)
system.mem_ctrls.dram.readBursts                15183                       # Number of DRAM read bursts
system.mem_ctrls.dram.writeBursts                2338                       # Number of DRAM write bursts
system.mem_ctrls.dram.perBankRdBursts::0         1142                       # Per bank write bursts
system.mem_ctrls.dram.perBankRdBursts::1          958                       # Per bank write bursts
system.mem_ctrls.dram.perBankRdBursts::2          822                       # Per bank write bursts
system.mem_ctrls.dram.perBankRdBursts::3          869                       # Per bank write bursts
system.mem_ctrls.dram.perBankRdBursts::4          972                       # Per bank write bursts
system.mem_ctrls.dram.perBankRdBursts::5          960                       # Per bank write bursts
system.mem_ctrls.dram.perBankRdBursts::6         1008                       # Per bank write bursts
system.mem_ctrls.dram.perBankRdBursts::7          952                       # Per bank write bursts
system.mem_ctrls.dram.perBankRdBursts::8          955                       # Per bank write bursts
system.mem_ctrls.dram.perBankRdBursts::9          910                       # Per bank write bursts
system.mem_ctrls.dram.perBankRdBursts::10          791                       # Per bank write bursts
system.mem_ctrls.dram.perBankRdBursts::11         1016                       # Per bank write bursts
system.mem_ctrls.dram.perBankRdBursts::12          842                       # Per bank write bursts
system.mem_ctrls.dram.perBankRdBursts::13          885                       # Per bank write bursts
system.mem_ctrls.dram.perBankRdBursts::14         1057                       # Per bank write bursts
system.mem_ctrls.dram.perBankRdBursts::15         1044                       # Per bank write bursts
system.mem_ctrls.dram.perBankWrBursts::0          188                       # Per bank write bursts
system.mem_ctrls.dram.perBankWrBursts::1           53                       # Per bank write bursts
system.mem_ctrls.dram.perBankWrBursts::2           74                       # Per bank write bursts
system.mem_ctrls.dram.perBankWrBursts::3          111                       # Per bank write bursts
system.mem_ctrls.dram.perBankWrBursts::4          107                       # Per bank write bursts
system.mem_ctrls.dram.perBankWrBursts::5          229                       # Per bank write bursts
system.mem_ctrls.dram.perBankWrBursts::6          248                       # Per bank write bursts
system.mem_ctrls.dram.perBankWrBursts::7          181                       # Per bank write bursts
system.mem_ctrls.dram.perBankWrBursts::8          139                       # Per bank write bursts
system.mem_ctrls.dram.perBankWrBursts::9           66                       # Per bank write bursts
system.mem_ctrls.dram.perBankWrBursts::10          111                       # Per bank write bursts
system.mem_ctrls.dram.perBankWrBursts::11          151                       # Per bank write bursts
system.mem_ctrls.dram.perBankWrBursts::12           21                       # Per bank write bursts
system.mem_ctrls.dram.perBankWrBursts::13          138                       # Per bank write bursts
system.mem_ctrls.dram.perBankWrBursts::14          330                       # Per bank write bursts
system.mem_ctrls.dram.perBankWrBursts::15          191                       # Per bank write bursts
system.mem_ctrls.dram.totQLat               112626250                       # Total ticks spent queuing
system.mem_ctrls.dram.totBusLat              75915000                       # Total ticks spent in databus transfers
system.mem_ctrls.dram.totMemAccLat          397307500                       # Total ticks spent from burst creation until serviced by the DRAM
system.mem_ctrls.dram.avgQLat                 7417.92                       # Average queueing delay per DRAM burst
system.mem_ctrls.dram.avgBusLat               5000.00                       # Average bus latency per DRAM burst
system.mem_ctrls.dram.avgMemAccLat           26167.92                       # Average memory access latency per DRAM burst
system.mem_ctrls.dram.readRowHits               13217                       # Number of row buffer hits during reads
system.mem_ctrls.dram.writeRowHits               1959                       # Number of row buffer hits during writes
system.mem_ctrls.dram.readRowHitRate            87.05                       # Row buffer hit rate for reads
system.mem_ctrls.dram.writeRowHitRate           83.79                       # Row buffer hit rate for writes
system.mem_ctrls.dram.bytesPerActivate::samples         2343                       # Bytes accessed per row activation
system.mem_ctrls.dram.bytesPerActivate::mean   478.074264                       # Bytes accessed per row activation
system.mem_ctrls.dram.bytesPerActivate::gmean   311.047823                       # Bytes accessed per row activation
system.mem_ctrls.dram.bytesPerActivate::stdev   367.060779                       # Bytes accessed per row activation
system.mem_ctrls.dram.bytesPerActivate::0-127          462     19.72%     19.72% # Bytes accessed per row activation
system.mem_ctrls.dram.bytesPerActivate::128-255          429     18.31%     38.03% # Bytes accessed per row activation
system.mem_ctrls.dram.bytesPerActivate::256-383          269     11.48%     49.51% # Bytes accessed per row activation
system.mem_ctrls.dram.bytesPerActivate::384-511          155      6.62%     56.12% # Bytes accessed per row activation
system.mem_ctrls.dram.bytesPerActivate::512-639          152      6.49%     62.61% # Bytes accessed per row activation
system.mem_ctrls.dram.bytesPerActivate::640-767          112      4.78%     67.39% # Bytes accessed per row activation
system.mem_ctrls.dram.bytesPerActivate::768-895           99      4.23%     71.62% # Bytes accessed per row activation
system.mem_ctrls.dram.bytesPerActivate::896-1023          355     15.15%     86.77% # Bytes accessed per row activation
system.mem_ctrls.dram.bytesPerActivate::1024-1151          310     13.23%    100.00% # Bytes accessed per row activation
system.mem_ctrls.dram.bytesPerActivate::total         2343                       # Bytes accessed per row activation
system.mem_ctrls.dram.bytesRead                971712                       # Total number of bytes read from DRAM
system.mem_ctrls.dram.bytesWritten             149632                       # Total number of bytes written to DRAM
system.mem_ctrls.dram.avgRdBW              333.020035                       # Average DRAM read bandwidth in MiBytes/s
system.mem_ctrls.dram.avgWrBW               51.281093                       # Average DRAM write bandwidth in MiBytes/s
system.mem_ctrls.dram.peakBW                 12800.00                       # Theoretical peak bandwidth in MiByte/s
system.mem_ctrls.dram.busUtil                    3.00                       # Data bus utilization in percentage
system.mem_ctrls.dram.busUtilRead                2.60                       # Data bus utilization in percentage for reads
system.mem_ctrls.dram.busUtilWrite               0.40                       # Data bus utilization in percentage for writes
system.mem_ctrls.dram.pageHitRate               86.62                       # Row buffer hit rate, read and write combined
system.mem_ctrls.dram.power_state.pwrStateResidencyTicks::UNDEFINED   2917878500                       # Cumulative time (in ticks) in various power states
system.mem_ctrls.dram.rank0.actEnergy         8646540                       # Energy for activate commands per rank (pJ)
system.mem_ctrls.dram.rank0.preEnergy         4588155                       # Energy for precharge commands per rank (pJ)
system.mem_ctrls.dram.rank0.readEnergy       54856620                       # Energy for read commands per rank (pJ)
system.mem_ctrls.dram.rank0.writeEnergy       6217020                       # Energy for write commands per rank (pJ)
system.mem_ctrls.dram.rank0.refreshEnergy 229875360.000000                       # Energy for refresh commands per rank (pJ)
system.mem_ctrls.dram.rank0.actBackEnergy    891820290                       # Energy for active background per rank (pJ)
system.mem_ctrls.dram.rank0.preBackEnergy    369458880                       # Energy for precharge background per rank (pJ)
system.mem_ctrls.dram.rank0.actPowerDownEnergy            0                       # Energy for active power-down per rank (pJ)
system.mem_ctrls.dram.rank0.prePowerDownEnergy            0                       # Energy for precharge power-down per rank (pJ)
system.mem_ctrls.dram.rank0.selfRefreshEnergy            0                       # Energy for self refresh per rank (pJ)
system.mem_ctrls.dram.rank0.totalEnergy    1565462865                       # Total energy per rank (pJ)
system.mem_ctrls.dram.rank0.averagePower   536.507214                       # Core power per rank (mW)
system.mem_ctrls.dram.rank0.totalIdleTime            0                       # Total Idle time Per DRAM Rank
system.mem_ctrls.dram.rank0.pwrStateTime::IDLE    952011500                       # Time in different power states
system.mem_ctrls.dram.rank0.pwrStateTime::REF     97240000                       # Time in different power states
system.mem_ctrls.dram.rank0.pwrStateTime::SREF            0                       # Time in different power states
system.mem_ctrls.dram.rank0.pwrStateTime::PRE_PDN            0                       # Time in different power states
system.mem_ctrls.dram.rank0.pwrStateTime::ACT   1868627000                       # Time in different power states
system.mem_ctrls.dram.rank0.pwrStateTime::ACT_PDN            0                       # Time in different power states
system.mem_ctrls.dram.rank1.actEnergy         8096760                       # Energy for activate commands per rank (pJ)
system.mem_ctrls.dram.rank1.preEnergy         4303530                       # Energy for precharge commands per rank (pJ)
system.mem_ctrls.dram.rank1.readEnergy       53550000                       # Energy for read commands per rank (pJ)
system.mem_ctrls.dram.rank1.writeEnergy       5987340                       # Energy for write commands per rank (pJ)
system.mem_ctrls.dram.rank1.refreshEnergy 229875360.000000                       # Energy for refresh commands per rank (pJ)
system.mem_ctrls.dram.rank1.actBackEnergy    934213470                       # Energy for active background per rank (pJ)
system.mem_ctrls.dram.rank1.preBackEnergy    333759360                       # Energy for precharge background per rank (pJ)
system.mem_ctrls.dram.rank1.actPowerDownEnergy            0                       # Energy for active power-down per rank (pJ)
system.mem_ctrls.dram.rank1.prePowerDownEnergy            0                       # Energy for precharge power-down per rank (pJ)
system.mem_ctrls.dram.rank1.selfRefreshEnergy            0                       # Energy for self refresh per rank (pJ)
system.mem_ctrls.dram.rank1.totalEnergy    1569785820                       # Total energy per rank (pJ)
system.mem_ctrls.dram.rank1.averagePower   537.988755                       # Core power per rank (mW)
system.mem_ctrls.dram.rank1.totalIdleTime            0                       # Total Idle time Per DRAM Rank
system.mem_ctrls.dram.rank1.pwrStateTime::IDLE    859055000                       # Time in different power states
system.mem_ctrls.dram.rank1.pwrStateTime::REF     97240000                       # Time in different power states
system.mem_ctrls.dram.rank1.pwrStateTime::SREF            0                       # Time in different power states
system.mem_ctrls.dram.rank1.pwrStateTime::PRE_PDN            0                       # Time in different power states
system.mem_ctrls.dram.rank1.pwrStateTime::ACT   1961583500                       # Time in different power states
system.mem_ctrls.dram.rank1.pwrStateTime::ACT_PDN            0                       # Time in different power states
system.mem_ctrls.power_state.pwrStateResidencyTicks::UNDEFINED   2917878500                       # Cumulative time (in ticks) in various power states
system.membus.trans_dist::ReadResp               4735                       # Transaction distribution
system.membus.trans_dist::WritebackDirty         2366                       # Transaction distribution
system.membus.trans_dist::CleanEvict             4115                       # Transaction distribution
system.membus.trans_dist::ReadExReq             10454                       # Transaction distribution
system.membus.trans_dist::ReadExResp            10454                       # Transaction distribution
system.membus.trans_dist::ReadSharedReq          4735                       # Transaction distribution
system.membus.pkt_count_system.l2.mem_side_port::system.mem_ctrls.port        36859                       # Packet count per connected requestor and responder (bytes)
system.membus.pkt_count_system.l2.mem_side_port::total        36859                       # Packet count per connected requestor and responder (bytes)
system.membus.pkt_count::total                  36859                       # Packet count per connected requestor and responder (bytes)
system.membus.pkt_size_system.l2.mem_side_port::system.mem_ctrls.port      1123520                       # Cumulative packet size per connected requestor and responder (bytes)
system.membus.pkt_size_system.l2.mem_side_port::total      1123520                       # Cumulative packet size per connected requestor and responder (bytes)
system.membus.pkt_size::total                 1123520                       # Cumulative packet size per connected requestor and responder (bytes)
system.membus.snoops                                0                       # Total snoops (count)
system.membus.snoopTraffic                          0                       # Total snoop traffic (bytes)
system.membus.snoop_fanout::samples             15189                       # Request fanout histogram
system.membus.snoop_fanout::mean                    0                       # Request fanout histogram
system.membus.snoop_fanout::stdev                   0                       # Request fanout histogram
system.membus.snoop_fanout::underflows              0      0.00%      0.00% # Request fanout histogram
system.membus.snoop_fanout::0                   15189    100.00%    100.00% # Request fanout histogram
system.membus.snoop_fanout::1                       0      0.00%    100.00% # Request fanout histogram
system.membus.snoop_fanout::overflows               0      0.00%    100.00% # Request fanout histogram
system.membus.snoop_fanout::min_value               0                       # Request fanout histogram
system.membus.snoop_fanout::max_value               0                       # Request fanout histogram
system.membus.snoop_fanout::total               15189                       # Request fanout histogram
system.membus.power_state.pwrStateResidencyTicks::UNDEFINED   2917878500                       # Cumulative time (in ticks) in various power states
system.membus.reqLayer2.occupancy             7783500                       # Layer occupancy (ticks)
system.membus.reqLayer2.utilization               0.3                       # Layer utilization (%)
system.membus.respLayer1.occupancy           18986250                       # Layer occupancy (ticks)
system.membus.respLayer1.utilization              0.7                       # Layer utilization (%)
system.tol2bus.trans_dist::ReadResp              6600                       # Transaction distribution
system.tol2bus.trans_dist::WritebackDirty        13371                       # Transaction distribution
system.tol2bus.trans_dist::WritebackClean         2100                       # Transaction distribution
system.tol2bus.trans_dist::CleanEvict            7815                       # Transaction distribution
system.tol2bus.trans_dist::ReadExReq            10711                       # Transaction distribution
system.tol2bus.trans_dist::ReadExResp           10711                       # Transaction distribution
system.tol2bus.trans_dist::ReadCleanReq          2611                       # Transaction distribution
system.tol2bus.trans_dist::ReadSharedReq         3989                       # Transaction distribution
system.tol2bus.pkt_count_system.cpu.icache.mem_side_port::system.l2.cpu_side_port         7320                       # Packet count per connected requestor and responder (bytes)
system.tol2bus.pkt_count_system.cpu.dcache.mem_side_port::system.l2.cpu_side_port        43588                       # Packet count per connected requestor and responder (bytes)
system.tol2bus.pkt_count::total                 50908                       # Packet count per connected requestor and responder (bytes)
system.tol2bus.pkt_size_system.cpu.icache.mem_side_port::system.l2.cpu_side_port       301376                       # Cumulative packet size per connected requestor and responder (bytes)
system.tol2bus.pkt_size_system.cpu.dcache.mem_side_port::system.l2.cpu_side_port      1645120                       # Cumulative packet size per connected requestor and responder (bytes)
system.tol2bus.pkt_size::total                1946496                       # Cumulative packet size per connected requestor and responder (bytes)
system.tol2bus.snoops                            7000                       # Total snoops (count)
system.tol2bus.snoopTraffic                    151552                       # Total snoop traffic (bytes)
system.tol2bus.snoop_fanout::samples            24309                       # Request fanout histogram
system.tol2bus.snoop_fanout::mean            0.021761                       # Request fanout histogram
system.tol2bus.snoop_fanout::stdev           0.145907                       # Request fanout histogram
system.tol2bus.snoop_fanout::underflows             0      0.00%      0.00% # Request fanout histogram
system.tol2bus.snoop_fanout::0                  23780     97.82%     97.82% # Request fanout histogram
system.tol2bus.snoop_fanout::1                    529      2.18%    100.00% # Request fanout histogram
system.tol2bus.snoop_fanout::2                      0      0.00%    100.00% # Request fanout histogram
system.tol2bus.snoop_fanout::3                      0      0.00%    100.00% # Request fanout histogram
system.tol2bus.snoop_fanout::4                      0      0.00%    100.00% # Request fanout histogram
system.tol2bus.snoop_fanout::overflows              0      0.00%    100.00% # Request fanout histogram
system.tol2bus.snoop_fanout::min_value              0                       # Request fanout histogram
system.tol2bus.snoop_fanout::max_value              1                       # Request fanout histogram
system.tol2bus.snoop_fanout::total              24309                       # Request fanout histogram
system.tol2bus.power_state.pwrStateResidencyTicks::UNDEFINED   2917878500                       # Cumulative time (in ticks) in various power states
system.tol2bus.reqLayer0.occupancy           29904500                       # Layer occupancy (ticks)
system.tol2bus.reqLayer0.utilization              1.0                       # Layer utilization (%)
system.tol2bus.respLayer0.occupancy           3917997                       # Layer occupancy (ticks)
system.tol2bus.respLayer0.utilization             0.1                       # Layer utilization (%)
system.tol2bus.respLayer1.occupancy          22050998                       # Layer occupancy (ticks)
system.tol2bus.respLayer1.utilization             0.8                       # Layer utilization (%)
system.voltage_domain.voltage                       1                       # Voltage in Volts

---------- End Simulation Statistics   ----------
