
---------- Begin Simulation Statistics ----------
final_tick                                 7961566000                       # Number of ticks from beginning of simulation (restored from checkpoints and never reset)
host_inst_rate                                 109158                       # Simulator instruction rate (inst/s)
host_mem_usage                                 706976                       # Number of bytes of host memory used
host_op_rate                                   193340                       # Simulator op (including micro ops) rate (op/s)
host_seconds                                   274.83                       # Real time elapsed on the host
host_tick_rate                               28968886                       # Simulator tick rate (ticks/s)
sim_freq                                 1000000000000                       # Frequency of simulated ticks
sim_insts                                    30000000                       # Number of instructions simulated
sim_ops                                      53136004                       # Number of ops (including micro ops) simulated
sim_seconds                                  0.007962                       # Number of seconds simulated
sim_ticks                                  7961566000                       # Number of ticks simulated
system.cpu.cc_regfile_reads                  12636658                       # number of cc regfile reads
system.cpu.cc_regfile_writes                 12010927                       # number of cc regfile writes
system.cpu.committedInsts                    30000000                       # Number of Instructions Simulated
system.cpu.committedOps                      53136004                       # Number of Ops (including micro ops) Simulated
system.cpu.cpi                               0.530771                       # CPI: Cycles Per Instruction
system.cpu.cpi_total                         0.530771                       # CPI: Total CPI of All Threads
system.cpu.fp_regfile_reads                  38281270                       # number of floating regfile reads
system.cpu.fp_regfile_writes                 21562531                       # number of floating regfile writes
system.cpu.idleCycles                          139556                       # Total number of cycles that the CPU has spent unscheduled due to idling
system.cpu.iew.branchMispredicts                16677                       # Number of branch mispredicts detected at execute
system.cpu.iew.exec_branches                  3208413                       # Number of branches executed
system.cpu.iew.exec_nop                             0                       # number of nop insts executed
system.cpu.iew.exec_rate                     3.363600                       # Inst execution rate
system.cpu.iew.exec_refs                      8166325                       # number of memory reference insts executed
system.cpu.iew.exec_stores                    1383136                       # Number of stores executed
system.cpu.iew.exec_swp                             0                       # number of swp insts executed
system.cpu.iew.iewBlockCycles                  183960                       # Number of cycles IEW is blocking
system.cpu.iew.iewDispLoadInsts               6801726                       # Number of dispatched load instructions
system.cpu.iew.iewDispNonSpecInsts                 25                       # Number of dispatched non-speculative instructions
system.cpu.iew.iewDispSquashedInsts              1136                       # Number of squashed instructions skipped by dispatch
system.cpu.iew.iewDispStoreInsts              1395254                       # Number of dispatched store instructions
system.cpu.iew.iewDispatchedInsts            53844986                       # Number of instructions dispatched to IQ
system.cpu.iew.iewExecLoadInsts               6783189                       # Number of load instructions executed
system.cpu.iew.iewExecSquashedInsts             25395                       # Number of squashed instructions skipped in execute
system.cpu.iew.iewExecutedInsts              53559056                       # Number of executed instructions
system.cpu.iew.iewIQFullEvents                   1375                       # Number of times the IQ has become full, causing a stall
system.cpu.iew.iewIdleCycles                        0                       # Number of cycles IEW is idle
system.cpu.iew.iewLSQFullEvents                 44569                       # Number of times the LSQ has become full, causing a stall
system.cpu.iew.iewSquashCycles                  14359                       # Number of cycles IEW is squashing
system.cpu.iew.iewUnblockCycles                 46592                       # Number of cycles IEW is unblocking
system.cpu.iew.memOrderViolationEvents            164                       # Number of memory order violations
system.cpu.iew.predictedNotTakenIncorrect        13652                       # Number of branches that were predicted not taken incorrectly
system.cpu.iew.predictedTakenIncorrect           3025                       # Number of branches that were predicted taken incorrectly
system.cpu.iew.wb_consumers                  72058629                       # num instructions consuming a value
system.cpu.iew.wb_count                      53542839                       # cumulative count of insts written-back
system.cpu.iew.wb_fanout                     0.581652                       # average fanout of values written-back
system.cpu.iew.wb_producers                  41913081                       # num instructions producing a value
system.cpu.iew.wb_rate                       3.362582                       # insts written-back per cycle
system.cpu.iew.wb_sent                       53549218                       # cumulative count of insts sent to commit
system.cpu.int_regfile_reads                 52161405                       # number of integer regfile reads
system.cpu.int_regfile_writes                26700363                       # number of integer regfile writes
system.cpu.ipc                               1.884051                       # IPC: Instructions Per Cycle
system.cpu.ipc_total                         1.884051                       # IPC: Total IPC of All Threads
system.cpu.iq.FU_type_0::No_OpClass            917083      1.71%      1.71% # Type of FU issued
system.cpu.iq.FU_type_0::IntAlu              28107952     52.46%     54.17% # Type of FU issued
system.cpu.iq.FU_type_0::IntMult                 1890      0.00%     54.17% # Type of FU issued
system.cpu.iq.FU_type_0::IntDiv                 99786      0.19%     54.36% # Type of FU issued
system.cpu.iq.FU_type_0::FloatAdd             1322368      2.47%     56.82% # Type of FU issued
system.cpu.iq.FU_type_0::FloatCmp                   0      0.00%     56.82% # Type of FU issued
system.cpu.iq.FU_type_0::FloatCvt                  32      0.00%     56.82% # Type of FU issued
system.cpu.iq.FU_type_0::FloatMult                  0      0.00%     56.82% # Type of FU issued
system.cpu.iq.FU_type_0::FloatMultAcc               0      0.00%     56.82% # Type of FU issued
system.cpu.iq.FU_type_0::FloatDiv                   0      0.00%     56.82% # Type of FU issued
system.cpu.iq.FU_type_0::FloatMisc                  0      0.00%     56.82% # Type of FU issued
system.cpu.iq.FU_type_0::FloatSqrt                  0      0.00%     56.82% # Type of FU issued
system.cpu.iq.FU_type_0::SimdAdd                 3087      0.01%     56.83% # Type of FU issued
system.cpu.iq.FU_type_0::SimdAddAcc                 0      0.00%     56.83% # Type of FU issued
system.cpu.iq.FU_type_0::SimdAlu              2644619      4.94%     61.77% # Type of FU issued
system.cpu.iq.FU_type_0::SimdCmp                   12      0.00%     61.77% # Type of FU issued
system.cpu.iq.FU_type_0::SimdCvt                 7421      0.01%     61.78% # Type of FU issued
system.cpu.iq.FU_type_0::SimdMisc             2640863      4.93%     66.71% # Type of FU issued
system.cpu.iq.FU_type_0::SimdMult                 208      0.00%     66.71% # Type of FU issued
system.cpu.iq.FU_type_0::SimdMultAcc                0      0.00%     66.71% # Type of FU issued
system.cpu.iq.FU_type_0::SimdShift               2875      0.01%     66.71% # Type of FU issued
system.cpu.iq.FU_type_0::SimdShiftAcc               0      0.00%     66.71% # Type of FU issued
system.cpu.iq.FU_type_0::SimdDiv                    0      0.00%     66.71% # Type of FU issued
system.cpu.iq.FU_type_0::SimdSqrt                   0      0.00%     66.71% # Type of FU issued
system.cpu.iq.FU_type_0::SimdFloatAdd         4390880      8.19%     74.91% # Type of FU issued
system.cpu.iq.FU_type_0::SimdFloatAlu               0      0.00%     74.91% # Type of FU issued
system.cpu.iq.FU_type_0::SimdFloatCmp               0      0.00%     74.91% # Type of FU issued
system.cpu.iq.FU_type_0::SimdFloatCvt         2196030      4.10%     79.01% # Type of FU issued
system.cpu.iq.FU_type_0::SimdFloatDiv               2      0.00%     79.01% # Type of FU issued
system.cpu.iq.FU_type_0::SimdFloatMisc              0      0.00%     79.01% # Type of FU issued
system.cpu.iq.FU_type_0::SimdFloatMult        3074680      5.74%     84.74% # Type of FU issued
system.cpu.iq.FU_type_0::SimdFloatMultAcc            0      0.00%     84.74% # Type of FU issued
system.cpu.iq.FU_type_0::SimdFloatSqrt              0      0.00%     84.74% # Type of FU issued
system.cpu.iq.FU_type_0::SimdReduceAdd              0      0.00%     84.74% # Type of FU issued
system.cpu.iq.FU_type_0::SimdReduceAlu              0      0.00%     84.74% # Type of FU issued
system.cpu.iq.FU_type_0::SimdReduceCmp              0      0.00%     84.74% # Type of FU issued
system.cpu.iq.FU_type_0::SimdFloatReduceAdd            0      0.00%     84.74% # Type of FU issued
system.cpu.iq.FU_type_0::SimdFloatReduceCmp            0      0.00%     84.74% # Type of FU issued
system.cpu.iq.FU_type_0::SimdAes                    0      0.00%     84.74% # Type of FU issued
system.cpu.iq.FU_type_0::SimdAesMix                 0      0.00%     84.74% # Type of FU issued
system.cpu.iq.FU_type_0::SimdSha1Hash               0      0.00%     84.74% # Type of FU issued
system.cpu.iq.FU_type_0::SimdSha1Hash2              0      0.00%     84.74% # Type of FU issued
system.cpu.iq.FU_type_0::SimdSha256Hash             0      0.00%     84.74% # Type of FU issued
system.cpu.iq.FU_type_0::SimdSha256Hash2            0      0.00%     84.74% # Type of FU issued
system.cpu.iq.FU_type_0::SimdShaSigma2              0      0.00%     84.74% # Type of FU issued
system.cpu.iq.FU_type_0::SimdShaSigma3              0      0.00%     84.74% # Type of FU issued
system.cpu.iq.FU_type_0::SimdPredAlu                0      0.00%     84.74% # Type of FU issued
system.cpu.iq.FU_type_0::MemRead              1943664      3.63%     88.37% # Type of FU issued
system.cpu.iq.FU_type_0::MemWrite             1376310      2.57%     90.94% # Type of FU issued
system.cpu.iq.FU_type_0::FloatMemRead         4846116      9.04%     99.98% # Type of FU issued
system.cpu.iq.FU_type_0::FloatMemWrite           8574      0.02%    100.00% # Type of FU issued
system.cpu.iq.FU_type_0::IprAccess                  0      0.00%    100.00% # Type of FU issued
system.cpu.iq.FU_type_0::InstPrefetch               0      0.00%    100.00% # Type of FU issued
system.cpu.iq.FU_type_0::total               53584452                       # Type of FU issued
system.cpu.iq.fp_alu_accesses                22896952                       # Number of floating point alu accesses
system.cpu.iq.fp_inst_queue_reads            45794224                       # Number of floating instruction queue reads
system.cpu.iq.fp_inst_queue_wakeup_accesses     22891027                       # Number of floating instruction queue wakeup accesses
system.cpu.iq.fp_inst_queue_writes           22984694                       # Number of floating instruction queue writes
system.cpu.iq.fu_busy_cnt                      456560                       # FU busy when requested
system.cpu.iq.fu_busy_rate                   0.008520                       # FU busy rate (busy events/executed inst)
system.cpu.iq.fu_full::No_OpClass                   0      0.00%      0.00% # attempts to use FU when none available
system.cpu.iq.fu_full::IntAlu                  454032     99.45%     99.45% # attempts to use FU when none available
system.cpu.iq.fu_full::IntMult                      0      0.00%     99.45% # attempts to use FU when none available
system.cpu.iq.fu_full::IntDiv                       0      0.00%     99.45% # attempts to use FU when none available
system.cpu.iq.fu_full::FloatAdd                     0      0.00%     99.45% # attempts to use FU when none available
system.cpu.iq.fu_full::FloatCmp                     0      0.00%     99.45% # attempts to use FU when none available
system.cpu.iq.fu_full::FloatCvt                     0      0.00%     99.45% # attempts to use FU when none available
system.cpu.iq.fu_full::FloatMult                    0      0.00%     99.45% # attempts to use FU when none available
system.cpu.iq.fu_full::FloatMultAcc                 0      0.00%     99.45% # attempts to use FU when none available
system.cpu.iq.fu_full::FloatDiv                     0      0.00%     99.45% # attempts to use FU when none available
system.cpu.iq.fu_full::FloatMisc                    0      0.00%     99.45% # attempts to use FU when none available
system.cpu.iq.fu_full::FloatSqrt                    0      0.00%     99.45% # attempts to use FU when none available
system.cpu.iq.fu_full::SimdAdd                      1      0.00%     99.45% # attempts to use FU when none available
system.cpu.iq.fu_full::SimdAddAcc                   0      0.00%     99.45% # attempts to use FU when none available
system.cpu.iq.fu_full::SimdAlu                    111      0.02%     99.47% # attempts to use FU when none available
system.cpu.iq.fu_full::SimdCmp                      0      0.00%     99.47% # attempts to use FU when none available
system.cpu.iq.fu_full::SimdCvt                     50      0.01%     99.48% # attempts to use FU when none available
system.cpu.iq.fu_full::SimdMisc                    12      0.00%     99.48% # attempts to use FU when none available
system.cpu.iq.fu_full::SimdMult                     0      0.00%     99.48% # attempts to use FU when none available
system.cpu.iq.fu_full::SimdMultAcc                  0      0.00%     99.48% # attempts to use FU when none available
system.cpu.iq.fu_full::SimdShift                   28      0.01%     99.49% # attempts to use FU when none available
system.cpu.iq.fu_full::SimdShiftAcc                 0      0.00%     99.49% # attempts to use FU when none available
system.cpu.iq.fu_full::SimdDiv                      0      0.00%     99.49% # attempts to use FU when none available
system.cpu.iq.fu_full::SimdSqrt                     0      0.00%     99.49% # attempts to use FU when none available
system.cpu.iq.fu_full::SimdFloatAdd                 0      0.00%     99.49% # attempts to use FU when none available
system.cpu.iq.fu_full::SimdFloatAlu                 0      0.00%     99.49% # attempts to use FU when none available
system.cpu.iq.fu_full::SimdFloatCmp                 0      0.00%     99.49% # attempts to use FU when none available
system.cpu.iq.fu_full::SimdFloatCvt                 0      0.00%     99.49% # attempts to use FU when none available
system.cpu.iq.fu_full::SimdFloatDiv                 0      0.00%     99.49% # attempts to use FU when none available
system.cpu.iq.fu_full::SimdFloatMisc                0      0.00%     99.49% # attempts to use FU when none available
system.cpu.iq.fu_full::SimdFloatMult                0      0.00%     99.49% # attempts to use FU when none available
system.cpu.iq.fu_full::SimdFloatMultAcc             0      0.00%     99.49% # attempts to use FU when none available
system.cpu.iq.fu_full::SimdFloatSqrt                0      0.00%     99.49% # attempts to use FU when none available
system.cpu.iq.fu_full::SimdReduceAdd                0      0.00%     99.49% # attempts to use FU when none available
system.cpu.iq.fu_full::SimdReduceAlu                0      0.00%     99.49% # attempts to use FU when none available
system.cpu.iq.fu_full::SimdReduceCmp                0      0.00%     99.49% # attempts to use FU when none available
system.cpu.iq.fu_full::SimdFloatReduceAdd            0      0.00%     99.49% # attempts to use FU when none available
system.cpu.iq.fu_full::SimdFloatReduceCmp            0      0.00%     99.49% # attempts to use FU when none available
system.cpu.iq.fu_full::SimdAes                      0      0.00%     99.49% # attempts to use FU when none available
system.cpu.iq.fu_full::SimdAesMix                   0      0.00%     99.49% # attempts to use FU when none available
system.cpu.iq.fu_full::SimdSha1Hash                 0      0.00%     99.49% # attempts to use FU when none available
system.cpu.iq.fu_full::SimdSha1Hash2                0      0.00%     99.49% # attempts to use FU when none available
system.cpu.iq.fu_full::SimdSha256Hash               0      0.00%     99.49% # attempts to use FU when none available
system.cpu.iq.fu_full::SimdSha256Hash2              0      0.00%     99.49% # attempts to use FU when none available
system.cpu.iq.fu_full::SimdShaSigma2                0      0.00%     99.49% # attempts to use FU when none available
system.cpu.iq.fu_full::SimdShaSigma3                0      0.00%     99.49% # attempts to use FU when none available
system.cpu.iq.fu_full::SimdPredAlu                  0      0.00%     99.49% # attempts to use FU when none available
system.cpu.iq.fu_full::MemRead                   1098      0.24%     99.73% # attempts to use FU when none available
system.cpu.iq.fu_full::MemWrite                   793      0.17%     99.90% # attempts to use FU when none available
system.cpu.iq.fu_full::FloatMemRead                86      0.02%     99.92% # attempts to use FU when none available
system.cpu.iq.fu_full::FloatMemWrite              349      0.08%    100.00% # attempts to use FU when none available
system.cpu.iq.fu_full::IprAccess                    0      0.00%    100.00% # attempts to use FU when none available
system.cpu.iq.fu_full::InstPrefetch                 0      0.00%    100.00% # attempts to use FU when none available
system.cpu.iq.int_alu_accesses               30226977                       # Number of integer alu accesses
system.cpu.iq.int_inst_queue_reads           77619456                       # Number of integer instruction queue reads
system.cpu.iq.int_inst_queue_wakeup_accesses     30651812                       # Number of integer instruction queue wakeup accesses
system.cpu.iq.int_inst_queue_writes          31569292                       # Number of integer instruction queue writes
system.cpu.iq.iqInstsAdded                   53844959                       # Number of instructions added to the IQ (excludes non-spec)
system.cpu.iq.iqInstsIssued                  53584452                       # Number of instructions issued
system.cpu.iq.iqNonSpecInstsAdded                  27                       # Number of non-speculative instructions added to the IQ
system.cpu.iq.iqSquashedInstsExamined          708855                       # Number of squashed instructions iterated over during squash; mainly for profiling
system.cpu.iq.iqSquashedInstsIssued              4640                       # Number of squashed instructions issued
system.cpu.iq.iqSquashedNonSpecRemoved              9                       # Number of squashed non-spec instructions that were removed
system.cpu.iq.iqSquashedOperandsExamined      1092985                       # Number of squashed operands that are examined and possibly removed from graph
system.cpu.iq.issued_per_cycle::samples      15783577                       # Number of insts issued each cycle
system.cpu.iq.issued_per_cycle::mean         3.394950                       # Number of insts issued each cycle
system.cpu.iq.issued_per_cycle::stdev        2.030380                       # Number of insts issued each cycle
system.cpu.iq.issued_per_cycle::underflows            0      0.00%      0.00% # Number of insts issued each cycle
system.cpu.iq.issued_per_cycle::0              876428      5.55%      5.55% # Number of insts issued each cycle
system.cpu.iq.issued_per_cycle::1             2085482     13.21%     18.77% # Number of insts issued each cycle
system.cpu.iq.issued_per_cycle::2             3166607     20.06%     38.83% # Number of insts issued each cycle
system.cpu.iq.issued_per_cycle::3             2631567     16.67%     55.50% # Number of insts issued each cycle
system.cpu.iq.issued_per_cycle::4             2591837     16.42%     71.92% # Number of insts issued each cycle
system.cpu.iq.issued_per_cycle::5             1385492      8.78%     80.70% # Number of insts issued each cycle
system.cpu.iq.issued_per_cycle::6             1691101     10.71%     91.41% # Number of insts issued each cycle
system.cpu.iq.issued_per_cycle::7             1010863      6.40%     97.82% # Number of insts issued each cycle
system.cpu.iq.issued_per_cycle::8              344200      2.18%    100.00% # Number of insts issued each cycle
system.cpu.iq.issued_per_cycle::overflows            0      0.00%    100.00% # Number of insts issued each cycle
system.cpu.iq.issued_per_cycle::min_value            0                       # Number of insts issued each cycle
system.cpu.iq.issued_per_cycle::max_value            8                       # Number of insts issued each cycle
system.cpu.iq.issued_per_cycle::total        15783577                       # Number of insts issued each cycle
system.cpu.iq.rate                           3.365195                       # Inst issue rate
system.cpu.iq.vec_alu_accesses                      0                       # Number of vector alu accesses
system.cpu.iq.vec_inst_queue_reads                  0                       # Number of vector instruction queue reads
system.cpu.iq.vec_inst_queue_wakeup_accesses            0                       # Number of vector instruction queue wakeup accesses
system.cpu.iq.vec_inst_queue_writes                 0                       # Number of vector instruction queue writes
system.cpu.memDep0.conflictingLoads              4199                       # Number of conflicting loads.
system.cpu.memDep0.conflictingStores             1613                       # Number of conflicting stores.
system.cpu.memDep0.insertedLoads              6801726                       # Number of loads inserted to the mem dependence unit.
system.cpu.memDep0.insertedStores             1395254                       # Number of stores inserted to the mem dependence unit.
system.cpu.misc_regfile_reads                18082950                       # number of misc regfile reads
system.cpu.misc_regfile_writes                     18                       # number of misc regfile writes
system.cpu.numCycles                         15923133                       # number of cpu cycles simulated
system.cpu.numWorkItemsCompleted                    0                       # number of work items this cpu completed
system.cpu.numWorkItemsStarted                      0                       # number of work items this cpu started
system.cpu.timesIdled                            1575                       # Number of times that the entire CPU went into an idle state and unscheduled itself
system.cpu.workload.numSyscalls                    63                       # Number of system calls
system.membus.snoop_filter.hit_multi_requests            0                       # Number of requests hitting in the snoop filter with multiple (>1) holders of the requested data.
system.membus.snoop_filter.hit_multi_snoops            0                       # Number of snoops hitting in the snoop filter with multiple (>1) holders of the requested data.
system.membus.snoop_filter.hit_single_requests        25238                       # Number of requests hitting in the snoop filter with a single holder of the requested data.
system.membus.snoop_filter.hit_single_snoops            0                       # Number of snoops hitting in the snoop filter with a single holder of the requested data.
system.membus.snoop_filter.tot_requests         59185                       # Total number of requests made to the snoop filter.
system.membus.snoop_filter.tot_snoops               0                       # Total number of snoops made to the snoop filter.
system.tol2bus.snoop_filter.hit_multi_requests           10                       # Number of requests hitting in the snoop filter with multiple (>1) holders of the requested data.
system.tol2bus.snoop_filter.hit_multi_snoops            0                       # Number of snoops hitting in the snoop filter with multiple (>1) holders of the requested data.
system.tol2bus.snoop_filter.hit_single_requests        35629                       # Number of requests hitting in the snoop filter with a single holder of the requested data.
system.tol2bus.snoop_filter.hit_single_snoops          523                       # Number of snoops hitting in the snoop filter with a single holder of the requested data.
system.tol2bus.snoop_filter.tot_requests        72281                       # Total number of requests made to the snoop filter.
system.tol2bus.snoop_filter.tot_snoops            523                       # Total number of snoops made to the snoop filter.
system.clk_domain.clock                           250                       # Clock period in ticks
system.cpu.branchPred.lookups                 3275497                       # Number of BP lookups
system.cpu.branchPred.condPredicted           1924720                       # Number of conditional branches predicted
system.cpu.branchPred.condIncorrect             14298                       # Number of conditional branches incorrect
system.cpu.branchPred.BTBLookups               939875                       # Number of BTB lookups
system.cpu.branchPred.BTBHits                  938135                       # Number of BTB hits
system.cpu.branchPred.BTBHitPct             99.814869                       # BTB Hit Percentage
system.cpu.branchPred.RASUsed                  444725                       # Number of times the RAS was used to get a target.
system.cpu.branchPred.RASIncorrect                  6                       # Number of incorrect RAS predictions.
system.cpu.branchPred.indirectLookups          447494                       # Number of indirect predictor lookups.
system.cpu.branchPred.indirectHits             441052                       # Number of indirect target hits.
system.cpu.branchPred.indirectMisses             6442                       # Number of indirect misses.
system.cpu.branchPred.indirectMispredicted         1043                       # Number of mispredicted indirect branches.
system.cpu.commit.commitSquashedInsts          685393                       # The number of squashed insts skipped by commit
system.cpu.commit.commitNonSpecStalls              18                       # The number of times commit has been forced to stall to communicate backwards
system.cpu.commit.branchMispredicts             13574                       # The number of times a branch was mispredicted
system.cpu.commit.numCommittedDist::samples     15685893                       # Number of insts commited each cycle
system.cpu.commit.numCommittedDist::mean     3.387503                       # Number of insts commited each cycle
system.cpu.commit.numCommittedDist::stdev     2.881273                       # Number of insts commited each cycle
system.cpu.commit.numCommittedDist::underflows            0      0.00%      0.00% # Number of insts commited each cycle
system.cpu.commit.numCommittedDist::0         1651553     10.53%     10.53% # Number of insts commited each cycle
system.cpu.commit.numCommittedDist::1         4595237     29.30%     39.82% # Number of insts commited each cycle
system.cpu.commit.numCommittedDist::2         2238403     14.27%     54.09% # Number of insts commited each cycle
system.cpu.commit.numCommittedDist::3         1360924      8.68%     62.77% # Number of insts commited each cycle
system.cpu.commit.numCommittedDist::4          454690      2.90%     65.67% # Number of insts commited each cycle
system.cpu.commit.numCommittedDist::5          894175      5.70%     71.37% # Number of insts commited each cycle
system.cpu.commit.numCommittedDist::6          454779      2.90%     74.27% # Number of insts commited each cycle
system.cpu.commit.numCommittedDist::7         1326176      8.45%     82.72% # Number of insts commited each cycle
system.cpu.commit.numCommittedDist::8         2709956     17.28%    100.00% # Number of insts commited each cycle
system.cpu.commit.numCommittedDist::overflows            0      0.00%    100.00% # Number of insts commited each cycle
system.cpu.commit.numCommittedDist::min_value            0                       # Number of insts commited each cycle
system.cpu.commit.numCommittedDist::max_value            8                       # Number of insts commited each cycle
system.cpu.commit.numCommittedDist::total     15685893                       # Number of insts commited each cycle
system.cpu.commit.instsCommitted             30000000                       # Number of instructions committed
system.cpu.commit.opsCommitted               53136004                       # Number of ops (including micro ops) committed
system.cpu.commit.memRefs                     8087073                       # Number of memory references committed
system.cpu.commit.loads                       6720045                       # Number of loads committed
system.cpu.commit.amos                              0                       # Number of atomic instructions committed
system.cpu.commit.membars                           0                       # Number of memory barriers committed
system.cpu.commit.branches                    3180141                       # Number of branches committed
system.cpu.commit.vector                            0                       # Number of committed Vector instructions.
system.cpu.commit.floating                   22852935                       # Number of committed floating point instructions.
system.cpu.commit.integer                    36857888                       # Number of committed integer instructions.
system.cpu.commit.functionCalls                441376                       # Number of function calls committed.
system.cpu.commit.committedInstType_0::No_OpClass       901824      1.70%      1.70% # Class of committed instruction
system.cpu.commit.committedInstType_0::IntAlu     27791777     52.30%     54.00% # Class of committed instruction
system.cpu.commit.committedInstType_0::IntMult         1415      0.00%     54.00% # Class of committed instruction
system.cpu.commit.committedInstType_0::IntDiv        97485      0.18%     54.19% # Class of committed instruction
system.cpu.commit.committedInstType_0::FloatAdd      1317565      2.48%     56.67% # Class of committed instruction
system.cpu.commit.committedInstType_0::FloatCmp            0      0.00%     56.67% # Class of committed instruction
system.cpu.commit.committedInstType_0::FloatCvt           32      0.00%     56.67% # Class of committed instruction
system.cpu.commit.committedInstType_0::FloatMult            0      0.00%     56.67% # Class of committed instruction
system.cpu.commit.committedInstType_0::FloatMultAcc            0      0.00%     56.67% # Class of committed instruction
system.cpu.commit.committedInstType_0::FloatDiv            0      0.00%     56.67% # Class of committed instruction
system.cpu.commit.committedInstType_0::FloatMisc            0      0.00%     56.67% # Class of committed instruction
system.cpu.commit.committedInstType_0::FloatSqrt            0      0.00%     56.67% # Class of committed instruction
system.cpu.commit.committedInstType_0::SimdAdd         2262      0.00%     56.67% # Class of committed instruction
system.cpu.commit.committedInstType_0::SimdAddAcc            0      0.00%     56.67% # Class of committed instruction
system.cpu.commit.committedInstType_0::SimdAlu      2637146      4.96%     61.63% # Class of committed instruction
system.cpu.commit.committedInstType_0::SimdCmp           12      0.00%     61.63% # Class of committed instruction
system.cpu.commit.committedInstType_0::SimdCvt         4818      0.01%     61.64% # Class of committed instruction
system.cpu.commit.committedInstType_0::SimdMisc      2637464      4.96%     66.61% # Class of committed instruction
system.cpu.commit.committedInstType_0::SimdMult          208      0.00%     66.61% # Class of committed instruction
system.cpu.commit.committedInstType_0::SimdMultAcc            0      0.00%     66.61% # Class of committed instruction
system.cpu.commit.committedInstType_0::SimdShift          884      0.00%     66.61% # Class of committed instruction
system.cpu.commit.committedInstType_0::SimdShiftAcc            0      0.00%     66.61% # Class of committed instruction
system.cpu.commit.committedInstType_0::SimdDiv            0      0.00%     66.61% # Class of committed instruction
system.cpu.commit.committedInstType_0::SimdSqrt            0      0.00%     66.61% # Class of committed instruction
system.cpu.commit.committedInstType_0::SimdFloatAdd      4389100      8.26%     74.87% # Class of committed instruction
system.cpu.commit.committedInstType_0::SimdFloatAlu            0      0.00%     74.87% # Class of committed instruction
system.cpu.commit.committedInstType_0::SimdFloatCmp            0      0.00%     74.87% # Class of committed instruction
system.cpu.commit.committedInstType_0::SimdFloatCvt      2194610      4.13%     79.00% # Class of committed instruction
system.cpu.commit.committedInstType_0::SimdFloatDiv            2      0.00%     79.00% # Class of committed instruction
system.cpu.commit.committedInstType_0::SimdFloatMisc            0      0.00%     79.00% # Class of committed instruction
system.cpu.commit.committedInstType_0::SimdFloatMult      3072327      5.78%     84.78% # Class of committed instruction
system.cpu.commit.committedInstType_0::SimdFloatMultAcc            0      0.00%     84.78% # Class of committed instruction
system.cpu.commit.committedInstType_0::SimdFloatSqrt            0      0.00%     84.78% # Class of committed instruction
system.cpu.commit.committedInstType_0::SimdReduceAdd            0      0.00%     84.78% # Class of committed instruction
system.cpu.commit.committedInstType_0::SimdReduceAlu            0      0.00%     84.78% # Class of committed instruction
system.cpu.commit.committedInstType_0::SimdReduceCmp            0      0.00%     84.78% # Class of committed instruction
system.cpu.commit.committedInstType_0::SimdFloatReduceAdd            0      0.00%     84.78% # Class of committed instruction
system.cpu.commit.committedInstType_0::SimdFloatReduceCmp            0      0.00%     84.78% # Class of committed instruction
system.cpu.commit.committedInstType_0::SimdAes            0      0.00%     84.78% # Class of committed instruction
system.cpu.commit.committedInstType_0::SimdAesMix            0      0.00%     84.78% # Class of committed instruction
system.cpu.commit.committedInstType_0::SimdSha1Hash            0      0.00%     84.78% # Class of committed instruction
system.cpu.commit.committedInstType_0::SimdSha1Hash2            0      0.00%     84.78% # Class of committed instruction
system.cpu.commit.committedInstType_0::SimdSha256Hash            0      0.00%     84.78% # Class of committed instruction
system.cpu.commit.committedInstType_0::SimdSha256Hash2            0      0.00%     84.78% # Class of committed instruction
system.cpu.commit.committedInstType_0::SimdShaSigma2            0      0.00%     84.78% # Class of committed instruction
system.cpu.commit.committedInstType_0::SimdShaSigma3            0      0.00%     84.78% # Class of committed instruction
system.cpu.commit.committedInstType_0::SimdPredAlu            0      0.00%     84.78% # Class of committed instruction
system.cpu.commit.committedInstType_0::MemRead      1886821      3.55%     88.33% # Class of committed instruction
system.cpu.commit.committedInstType_0::MemWrite      1360171      2.56%     90.89% # Class of committed instruction
system.cpu.commit.committedInstType_0::FloatMemRead      4833224      9.10%     99.99% # Class of committed instruction
system.cpu.commit.committedInstType_0::FloatMemWrite         6857      0.01%    100.00% # Class of committed instruction
system.cpu.commit.committedInstType_0::IprAccess            0      0.00%    100.00% # Class of committed instruction
system.cpu.commit.committedInstType_0::InstPrefetch            0      0.00%    100.00% # Class of committed instruction
system.cpu.commit.committedInstType_0::total     53136004                       # Class of committed instruction
system.cpu.commit.commitEligibleSamples       2709956                       # number cycles where commit BW limit reached
system.cpu.dcache.demand_hits::.cpu.data      7655536                       # number of demand (read+write) hits
system.cpu.dcache.demand_hits::total          7655536                       # number of demand (read+write) hits
system.cpu.dcache.overall_hits::.cpu.data      7655536                       # number of overall hits
system.cpu.dcache.overall_hits::total         7655536                       # number of overall hits
system.cpu.dcache.demand_misses::.cpu.data        46192                       # number of demand (read+write) misses
system.cpu.dcache.demand_misses::total          46192                       # number of demand (read+write) misses
system.cpu.dcache.overall_misses::.cpu.data        46192                       # number of overall misses
system.cpu.dcache.overall_misses::total         46192                       # number of overall misses
system.cpu.dcache.demand_miss_latency::.cpu.data   2969121491                       # number of demand (read+write) miss cycles
system.cpu.dcache.demand_miss_latency::total   2969121491                       # number of demand (read+write) miss cycles
system.cpu.dcache.overall_miss_latency::.cpu.data   2969121491                       # number of overall miss cycles
system.cpu.dcache.overall_miss_latency::total   2969121491                       # number of overall miss cycles
system.cpu.dcache.demand_accesses::.cpu.data      7701728                       # number of demand (read+write) accesses
system.cpu.dcache.demand_accesses::total      7701728                       # number of demand (read+write) accesses
system.cpu.dcache.overall_accesses::.cpu.data      7701728                       # number of overall (read+write) accesses
system.cpu.dcache.overall_accesses::total      7701728                       # number of overall (read+write) accesses
system.cpu.dcache.demand_miss_rate::.cpu.data     0.005998                       # miss rate for demand accesses
system.cpu.dcache.demand_miss_rate::total     0.005998                       # miss rate for demand accesses
system.cpu.dcache.overall_miss_rate::.cpu.data     0.005998                       # miss rate for overall accesses
system.cpu.dcache.overall_miss_rate::total     0.005998                       # miss rate for overall accesses
system.cpu.dcache.demand_avg_miss_latency::.cpu.data 64277.829299                       # average overall miss latency
system.cpu.dcache.demand_avg_miss_latency::total 64277.829299                       # average overall miss latency
system.cpu.dcache.overall_avg_miss_latency::.cpu.data 64277.829299                       # average overall miss latency
system.cpu.dcache.overall_avg_miss_latency::total 64277.829299                       # average overall miss latency
system.cpu.dcache.blocked_cycles::no_mshrs        18414                       # number of cycles access was blocked
system.cpu.dcache.blocked_cycles::no_targets            4                       # number of cycles access was blocked
system.cpu.dcache.blocked::no_mshrs               643                       # number of cycles access was blocked
system.cpu.dcache.blocked::no_targets               1                       # number of cycles access was blocked
system.cpu.dcache.avg_blocked_cycles::no_mshrs    28.637636                       # average number of cycles each access was blocked
system.cpu.dcache.avg_blocked_cycles::no_targets            4                       # average number of cycles each access was blocked
system.cpu.dcache.writebacks::.writebacks        30183                       # number of writebacks
system.cpu.dcache.writebacks::total             30183                       # number of writebacks
system.cpu.dcache.demand_mshr_hits::.cpu.data        12235                       # number of demand (read+write) MSHR hits
system.cpu.dcache.demand_mshr_hits::total        12235                       # number of demand (read+write) MSHR hits
system.cpu.dcache.overall_mshr_hits::.cpu.data        12235                       # number of overall MSHR hits
system.cpu.dcache.overall_mshr_hits::total        12235                       # number of overall MSHR hits
system.cpu.dcache.demand_mshr_misses::.cpu.data        33957                       # number of demand (read+write) MSHR misses
system.cpu.dcache.demand_mshr_misses::total        33957                       # number of demand (read+write) MSHR misses
system.cpu.dcache.overall_mshr_misses::.cpu.data        33957                       # number of overall MSHR misses
system.cpu.dcache.overall_mshr_misses::total        33957                       # number of overall MSHR misses
system.cpu.dcache.demand_mshr_miss_latency::.cpu.data   2341107991                       # number of demand (read+write) MSHR miss cycles
system.cpu.dcache.demand_mshr_miss_latency::total   2341107991                       # number of demand (read+write) MSHR miss cycles
system.cpu.dcache.overall_mshr_miss_latency::.cpu.data   2341107991                       # number of overall MSHR miss cycles
system.cpu.dcache.overall_mshr_miss_latency::total   2341107991                       # number of overall MSHR miss cycles
system.cpu.dcache.demand_mshr_miss_rate::.cpu.data     0.004409                       # mshr miss rate for demand accesses
system.cpu.dcache.demand_mshr_miss_rate::total     0.004409                       # mshr miss rate for demand accesses
system.cpu.dcache.overall_mshr_miss_rate::.cpu.data     0.004409                       # mshr miss rate for overall accesses
system.cpu.dcache.overall_mshr_miss_rate::total     0.004409                       # mshr miss rate for overall accesses
system.cpu.dcache.demand_avg_mshr_miss_latency::.cpu.data 68943.310393                       # average overall mshr miss latency
system.cpu.dcache.demand_avg_mshr_miss_latency::total 68943.310393                       # average overall mshr miss latency
system.cpu.dcache.overall_avg_mshr_miss_latency::.cpu.data 68943.310393                       # average overall mshr miss latency
system.cpu.dcache.overall_avg_mshr_miss_latency::total 68943.310393                       # average overall mshr miss latency
system.cpu.dcache.replacements                  33445                       # number of replacements
system.cpu.dcache.ReadReq_hits::.cpu.data      6317986                       # number of ReadReq hits
system.cpu.dcache.ReadReq_hits::total         6317986                       # number of ReadReq hits
system.cpu.dcache.ReadReq_misses::.cpu.data        16653                       # number of ReadReq misses
system.cpu.dcache.ReadReq_misses::total         16653                       # number of ReadReq misses
system.cpu.dcache.ReadReq_miss_latency::.cpu.data    805637500                       # number of ReadReq miss cycles
system.cpu.dcache.ReadReq_miss_latency::total    805637500                       # number of ReadReq miss cycles
system.cpu.dcache.ReadReq_accesses::.cpu.data      6334639                       # number of ReadReq accesses(hits+misses)
system.cpu.dcache.ReadReq_accesses::total      6334639                       # number of ReadReq accesses(hits+misses)
system.cpu.dcache.ReadReq_miss_rate::.cpu.data     0.002629                       # miss rate for ReadReq accesses
system.cpu.dcache.ReadReq_miss_rate::total     0.002629                       # miss rate for ReadReq accesses
system.cpu.dcache.ReadReq_avg_miss_latency::.cpu.data 48377.919894                       # average ReadReq miss latency
system.cpu.dcache.ReadReq_avg_miss_latency::total 48377.919894                       # average ReadReq miss latency
system.cpu.dcache.ReadReq_mshr_hits::.cpu.data        12230                       # number of ReadReq MSHR hits
system.cpu.dcache.ReadReq_mshr_hits::total        12230                       # number of ReadReq MSHR hits
system.cpu.dcache.ReadReq_mshr_misses::.cpu.data         4423                       # number of ReadReq MSHR misses
system.cpu.dcache.ReadReq_mshr_misses::total         4423                       # number of ReadReq MSHR misses
system.cpu.dcache.ReadReq_mshr_miss_latency::.cpu.data    207397500                       # number of ReadReq MSHR miss cycles
system.cpu.dcache.ReadReq_mshr_miss_latency::total    207397500                       # number of ReadReq MSHR miss cycles
system.cpu.dcache.ReadReq_mshr_miss_rate::.cpu.data     0.000698                       # mshr miss rate for ReadReq accesses
system.cpu.dcache.ReadReq_mshr_miss_rate::total     0.000698                       # mshr miss rate for ReadReq accesses
system.cpu.dcache.ReadReq_avg_mshr_miss_latency::.cpu.data 46890.685055                       # average ReadReq mshr miss latency
system.cpu.dcache.ReadReq_avg_mshr_miss_latency::total 46890.685055                       # average ReadReq mshr miss latency
system.cpu.dcache.WriteReq_hits::.cpu.data      1337550                       # number of WriteReq hits
system.cpu.dcache.WriteReq_hits::total        1337550                       # number of WriteReq hits
system.cpu.dcache.WriteReq_misses::.cpu.data        29539                       # number of WriteReq misses
system.cpu.dcache.WriteReq_misses::total        29539                       # number of WriteReq misses
system.cpu.dcache.WriteReq_miss_latency::.cpu.data   2163483991                       # number of WriteReq miss cycles
system.cpu.dcache.WriteReq_miss_latency::total   2163483991                       # number of WriteReq miss cycles
system.cpu.dcache.WriteReq_accesses::.cpu.data      1367089                       # number of WriteReq accesses(hits+misses)
system.cpu.dcache.WriteReq_accesses::total      1367089                       # number of WriteReq accesses(hits+misses)
system.cpu.dcache.WriteReq_miss_rate::.cpu.data     0.021607                       # miss rate for WriteReq accesses
system.cpu.dcache.WriteReq_miss_rate::total     0.021607                       # miss rate for WriteReq accesses
system.cpu.dcache.WriteReq_avg_miss_latency::.cpu.data 73241.612478                       # average WriteReq miss latency
system.cpu.dcache.WriteReq_avg_miss_latency::total 73241.612478                       # average WriteReq miss latency
system.cpu.dcache.WriteReq_mshr_hits::.cpu.data            5                       # number of WriteReq MSHR hits
system.cpu.dcache.WriteReq_mshr_hits::total            5                       # number of WriteReq MSHR hits
system.cpu.dcache.WriteReq_mshr_misses::.cpu.data        29534                       # number of WriteReq MSHR misses
system.cpu.dcache.WriteReq_mshr_misses::total        29534                       # number of WriteReq MSHR misses
system.cpu.dcache.WriteReq_mshr_miss_latency::.cpu.data   2133710491                       # number of WriteReq MSHR miss cycles
system.cpu.dcache.WriteReq_mshr_miss_latency::total   2133710491                       # number of WriteReq MSHR miss cycles
system.cpu.dcache.WriteReq_mshr_miss_rate::.cpu.data     0.021604                       # mshr miss rate for WriteReq accesses
system.cpu.dcache.WriteReq_mshr_miss_rate::total     0.021604                       # mshr miss rate for WriteReq accesses
system.cpu.dcache.WriteReq_avg_mshr_miss_latency::.cpu.data 72245.902722                       # average WriteReq mshr miss latency
system.cpu.dcache.WriteReq_avg_mshr_miss_latency::total 72245.902722                       # average WriteReq mshr miss latency
system.cpu.dcache.power_state.pwrStateResidencyTicks::UNDEFINED   7961566000                       # Cumulative time (in ticks) in various power states
system.cpu.dcache.tags.tagsinuse           509.931150                       # Cycle average of tags in use
system.cpu.dcache.tags.total_refs             7689493                       # Total number of references to valid blocks.
system.cpu.dcache.tags.sampled_refs             33957                       # Sample count of references to valid blocks.
system.cpu.dcache.tags.avg_refs            226.447949                       # Average number of references to valid blocks.
system.cpu.dcache.tags.warmup_cycle            163000                       # Cycle when the warmup percentage was hit.
system.cpu.dcache.tags.occ_blocks::.cpu.data   509.931150                       # Average occupied blocks per requestor
system.cpu.dcache.tags.occ_percent::.cpu.data     0.995959                       # Average percentage of cache occupancy
system.cpu.dcache.tags.occ_percent::total     0.995959                       # Average percentage of cache occupancy
system.cpu.dcache.tags.occ_task_id_blocks::1024          512                       # Occupied blocks per task id
system.cpu.dcache.tags.age_task_id_blocks_1024::0           39                       # Occupied blocks per task id
system.cpu.dcache.tags.age_task_id_blocks_1024::1          329                       # Occupied blocks per task id
system.cpu.dcache.tags.age_task_id_blocks_1024::2          138                       # Occupied blocks per task id
system.cpu.dcache.tags.age_task_id_blocks_1024::3            6                       # Occupied blocks per task id
system.cpu.dcache.tags.occ_task_id_percent::1024            1                       # Percentage of cache occupancy per task id
system.cpu.dcache.tags.tag_accesses          15437413                       # Number of tag accesses
system.cpu.dcache.tags.data_accesses         15437413                       # Number of data accesses
system.cpu.dcache.tags.power_state.pwrStateResidencyTicks::UNDEFINED   7961566000                       # Cumulative time (in ticks) in various power states
system.cpu.decode.idleCycles                  1839003                       # Number of cycles decode is idle
system.cpu.decode.blockedCycles               7136077                       # Number of cycles decode is blocked
system.cpu.decode.runCycles                   2908495                       # Number of cycles decode is running
system.cpu.decode.unblockCycles               3885643                       # Number of cycles decode is unblocking
system.cpu.decode.squashCycles                  14359                       # Number of cycles decode is squashing
system.cpu.decode.branchResolved               933765                       # Number of times decode resolved a  branch
system.cpu.decode.branchMispred                  1207                       # Number of times decode detected a branch misprediction
system.cpu.decode.decodedInsts               54013717                       # Number of instructions handled by decode
system.cpu.decode.squashedInsts                  5768                       # Number of squashed instructions handled by decode
system.cpu.dtb.rdAccesses                     6782229                       # TLB accesses on read requests
system.cpu.dtb.wrAccesses                     1383200                       # TLB accesses on write requests
system.cpu.dtb.rdMisses                           576                       # TLB misses on read requests
system.cpu.dtb.wrMisses                          1380                       # TLB misses on write requests
system.cpu.dtb.walker.power_state.pwrStateResidencyTicks::UNDEFINED   7961566000                       # Cumulative time (in ticks) in various power states
system.cpu.dtb_walker_cache.blocked_cycles::no_mshrs            0                       # number of cycles access was blocked
system.cpu.dtb_walker_cache.blocked_cycles::no_targets            0                       # number of cycles access was blocked
system.cpu.dtb_walker_cache.blocked::no_mshrs            0                       # number of cycles access was blocked
system.cpu.dtb_walker_cache.blocked::no_targets            0                       # number of cycles access was blocked
system.cpu.dtb_walker_cache.avg_blocked_cycles::no_mshrs          nan                       # average number of cycles each access was blocked
system.cpu.dtb_walker_cache.avg_blocked_cycles::no_targets          nan                       # average number of cycles each access was blocked
system.cpu.dtb_walker_cache.replacements            0                       # number of replacements
system.cpu.dtb_walker_cache.power_state.pwrStateResidencyTicks::UNDEFINED   7961566000                       # Cumulative time (in ticks) in various power states
system.cpu.dtb_walker_cache.tags.tagsinuse            0                       # Cycle average of tags in use
system.cpu.dtb_walker_cache.tags.total_refs            0                       # Total number of references to valid blocks.
system.cpu.dtb_walker_cache.tags.sampled_refs            0                       # Sample count of references to valid blocks.
system.cpu.dtb_walker_cache.tags.avg_refs          nan                       # Average number of references to valid blocks.
system.cpu.dtb_walker_cache.tags.warmup_cycle            0                       # Cycle when the warmup percentage was hit.
system.cpu.dtb_walker_cache.tags.tag_accesses            0                       # Number of tag accesses
system.cpu.dtb_walker_cache.tags.data_accesses            0                       # Number of data accesses
system.cpu.dtb_walker_cache.tags.power_state.pwrStateResidencyTicks::UNDEFINED   7961566000                       # Cumulative time (in ticks) in various power states
system.cpu.fetch.icacheStallCycles            3715640                       # Number of cycles fetch is stalled on an Icache miss
system.cpu.fetch.insts                       30511793                       # Number of instructions fetch has processed
system.cpu.fetch.branches                     3275497                       # Number of branches that fetch encountered
system.cpu.fetch.predictedBranches            1823912                       # Number of branches that fetch has predicted taken
system.cpu.fetch.cycles                      12047838                       # Number of cycles fetch has run and was not squashing or blocked
system.cpu.fetch.squashCycles                   31064                       # Number of cycles fetch has spent squashing
system.cpu.fetch.miscStallCycles                  557                       # Number of cycles fetch has spent waiting on interrupts,or bad addresses, or out of MSHRs
system.cpu.fetch.pendingTrapStallCycles          3958                       # Number of stall cycles due to pending traps
system.cpu.fetch.pendingQuiesceStallCycles            9                       # Number of stall cycles due to pending quiesce instructions
system.cpu.fetch.icacheWaitRetryStallCycles           43                       # Number of stall cycles due to full MSHR
system.cpu.fetch.cacheLines                   3639221                       # Number of cache lines fetched
system.cpu.fetch.icacheSquashes                  4448                       # Number of outstanding Icache misses that were squashed
system.cpu.fetch.nisnDist::samples           15783577                       # Number of instructions fetched each cycle (Total)
system.cpu.fetch.nisnDist::mean              3.435296                       # Number of instructions fetched each cycle (Total)
system.cpu.fetch.nisnDist::stdev             3.553569                       # Number of instructions fetched each cycle (Total)
system.cpu.fetch.nisnDist::underflows               0      0.00%      0.00% # Number of instructions fetched each cycle (Total)
system.cpu.fetch.nisnDist::0                  6648489     42.12%     42.12% # Number of instructions fetched each cycle (Total)
system.cpu.fetch.nisnDist::1                   784293      4.97%     47.09% # Number of instructions fetched each cycle (Total)
system.cpu.fetch.nisnDist::2                  1119142      7.09%     54.18% # Number of instructions fetched each cycle (Total)
system.cpu.fetch.nisnDist::3                   336776      2.13%     56.32% # Number of instructions fetched each cycle (Total)
system.cpu.fetch.nisnDist::4                   670172      4.25%     60.56% # Number of instructions fetched each cycle (Total)
system.cpu.fetch.nisnDist::5                   342135      2.17%     62.73% # Number of instructions fetched each cycle (Total)
system.cpu.fetch.nisnDist::6                   239889      1.52%     64.25% # Number of instructions fetched each cycle (Total)
system.cpu.fetch.nisnDist::7                   783786      4.97%     69.22% # Number of instructions fetched each cycle (Total)
system.cpu.fetch.nisnDist::8                  4858895     30.78%    100.00% # Number of instructions fetched each cycle (Total)
system.cpu.fetch.nisnDist::overflows                0      0.00%    100.00% # Number of instructions fetched each cycle (Total)
system.cpu.fetch.nisnDist::min_value                0                       # Number of instructions fetched each cycle (Total)
system.cpu.fetch.nisnDist::max_value                8                       # Number of instructions fetched each cycle (Total)
system.cpu.fetch.nisnDist::total             15783577                       # Number of instructions fetched each cycle (Total)
system.cpu.fetch.branchRate                  0.205707                       # Number of branch fetches per cycle
system.cpu.fetch.rate                        1.916193                       # Number of inst fetches per cycle
system.cpu.icache.demand_hits::.cpu.inst      3635533                       # number of demand (read+write) hits
system.cpu.icache.demand_hits::total          3635533                       # number of demand (read+write) hits
system.cpu.icache.overall_hits::.cpu.inst      3635533                       # number of overall hits
system.cpu.icache.overall_hits::total         3635533                       # number of overall hits
system.cpu.icache.demand_misses::.cpu.inst         3687                       # number of demand (read+write) misses
system.cpu.icache.demand_misses::total           3687                       # number of demand (read+write) misses
system.cpu.icache.overall_misses::.cpu.inst         3687                       # number of overall misses
system.cpu.icache.overall_misses::total          3687                       # number of overall misses
system.cpu.icache.demand_miss_latency::.cpu.inst    214595500                       # number of demand (read+write) miss cycles
system.cpu.icache.demand_miss_latency::total    214595500                       # number of demand (read+write) miss cycles
system.cpu.icache.overall_miss_latency::.cpu.inst    214595500                       # number of overall miss cycles
system.cpu.icache.overall_miss_latency::total    214595500                       # number of overall miss cycles
system.cpu.icache.demand_accesses::.cpu.inst      3639220                       # number of demand (read+write) accesses
system.cpu.icache.demand_accesses::total      3639220                       # number of demand (read+write) accesses
system.cpu.icache.overall_accesses::.cpu.inst      3639220                       # number of overall (read+write) accesses
system.cpu.icache.overall_accesses::total      3639220                       # number of overall (read+write) accesses
system.cpu.icache.demand_miss_rate::.cpu.inst     0.001013                       # miss rate for demand accesses
system.cpu.icache.demand_miss_rate::total     0.001013                       # miss rate for demand accesses
system.cpu.icache.overall_miss_rate::.cpu.inst     0.001013                       # miss rate for overall accesses
system.cpu.icache.overall_miss_rate::total     0.001013                       # miss rate for overall accesses
system.cpu.icache.demand_avg_miss_latency::.cpu.inst 58203.281801                       # average overall miss latency
system.cpu.icache.demand_avg_miss_latency::total 58203.281801                       # average overall miss latency
system.cpu.icache.overall_avg_miss_latency::.cpu.inst 58203.281801                       # average overall miss latency
system.cpu.icache.overall_avg_miss_latency::total 58203.281801                       # average overall miss latency
system.cpu.icache.blocked_cycles::no_mshrs          815                       # number of cycles access was blocked
system.cpu.icache.blocked_cycles::no_targets            0                       # number of cycles access was blocked
system.cpu.icache.blocked::no_mshrs                18                       # number of cycles access was blocked
system.cpu.icache.blocked::no_targets               0                       # number of cycles access was blocked
system.cpu.icache.avg_blocked_cycles::no_mshrs    45.277778                       # average number of cycles each access was blocked
system.cpu.icache.avg_blocked_cycles::no_targets          nan                       # average number of cycles each access was blocked
system.cpu.icache.writebacks::.writebacks         2184                       # number of writebacks
system.cpu.icache.writebacks::total              2184                       # number of writebacks
system.cpu.icache.demand_mshr_hits::.cpu.inst          992                       # number of demand (read+write) MSHR hits
system.cpu.icache.demand_mshr_hits::total          992                       # number of demand (read+write) MSHR hits
system.cpu.icache.overall_mshr_hits::.cpu.inst          992                       # number of overall MSHR hits
system.cpu.icache.overall_mshr_hits::total          992                       # number of overall MSHR hits
system.cpu.icache.demand_mshr_misses::.cpu.inst         2695                       # number of demand (read+write) MSHR misses
system.cpu.icache.demand_mshr_misses::total         2695                       # number of demand (read+write) MSHR misses
system.cpu.icache.overall_mshr_misses::.cpu.inst         2695                       # number of overall MSHR misses
system.cpu.icache.overall_mshr_misses::total         2695                       # number of overall MSHR misses
system.cpu.icache.demand_mshr_miss_latency::.cpu.inst    159087000                       # number of demand (read+write) MSHR miss cycles
system.cpu.icache.demand_mshr_miss_latency::total    159087000                       # number of demand (read+write) MSHR miss cycles
system.cpu.icache.overall_mshr_miss_latency::.cpu.inst    159087000                       # number of overall MSHR miss cycles
system.cpu.icache.overall_mshr_miss_latency::total    159087000                       # number of overall MSHR miss cycles
system.cpu.icache.demand_mshr_miss_rate::.cpu.inst     0.000741                       # mshr miss rate for demand accesses
system.cpu.icache.demand_mshr_miss_rate::total     0.000741                       # mshr miss rate for demand accesses
system.cpu.icache.overall_mshr_miss_rate::.cpu.inst     0.000741                       # mshr miss rate for overall accesses
system.cpu.icache.overall_mshr_miss_rate::total     0.000741                       # mshr miss rate for overall accesses
system.cpu.icache.demand_avg_mshr_miss_latency::.cpu.inst 59030.426716                       # average overall mshr miss latency
system.cpu.icache.demand_avg_mshr_miss_latency::total 59030.426716                       # average overall mshr miss latency
system.cpu.icache.overall_avg_mshr_miss_latency::.cpu.inst 59030.426716                       # average overall mshr miss latency
system.cpu.icache.overall_avg_mshr_miss_latency::total 59030.426716                       # average overall mshr miss latency
system.cpu.icache.replacements                   2184                       # number of replacements
system.cpu.icache.ReadReq_hits::.cpu.inst      3635533                       # number of ReadReq hits
system.cpu.icache.ReadReq_hits::total         3635533                       # number of ReadReq hits
system.cpu.icache.ReadReq_misses::.cpu.inst         3687                       # number of ReadReq misses
system.cpu.icache.ReadReq_misses::total          3687                       # number of ReadReq misses
system.cpu.icache.ReadReq_miss_latency::.cpu.inst    214595500                       # number of ReadReq miss cycles
system.cpu.icache.ReadReq_miss_latency::total    214595500                       # number of ReadReq miss cycles
system.cpu.icache.ReadReq_accesses::.cpu.inst      3639220                       # number of ReadReq accesses(hits+misses)
system.cpu.icache.ReadReq_accesses::total      3639220                       # number of ReadReq accesses(hits+misses)
system.cpu.icache.ReadReq_miss_rate::.cpu.inst     0.001013                       # miss rate for ReadReq accesses
system.cpu.icache.ReadReq_miss_rate::total     0.001013                       # miss rate for ReadReq accesses
system.cpu.icache.ReadReq_avg_miss_latency::.cpu.inst 58203.281801                       # average ReadReq miss latency
system.cpu.icache.ReadReq_avg_miss_latency::total 58203.281801                       # average ReadReq miss latency
system.cpu.icache.ReadReq_mshr_hits::.cpu.inst          992                       # number of ReadReq MSHR hits
system.cpu.icache.ReadReq_mshr_hits::total          992                       # number of ReadReq MSHR hits
system.cpu.icache.ReadReq_mshr_misses::.cpu.inst         2695                       # number of ReadReq MSHR misses
system.cpu.icache.ReadReq_mshr_misses::total         2695                       # number of ReadReq MSHR misses
system.cpu.icache.ReadReq_mshr_miss_latency::.cpu.inst    159087000                       # number of ReadReq MSHR miss cycles
system.cpu.icache.ReadReq_mshr_miss_latency::total    159087000                       # number of ReadReq MSHR miss cycles
system.cpu.icache.ReadReq_mshr_miss_rate::.cpu.inst     0.000741                       # mshr miss rate for ReadReq accesses
system.cpu.icache.ReadReq_mshr_miss_rate::total     0.000741                       # mshr miss rate for ReadReq accesses
system.cpu.icache.ReadReq_avg_mshr_miss_latency::.cpu.inst 59030.426716                       # average ReadReq mshr miss latency
system.cpu.icache.ReadReq_avg_mshr_miss_latency::total 59030.426716                       # average ReadReq mshr miss latency
system.cpu.icache.power_state.pwrStateResidencyTicks::UNDEFINED   7961566000                       # Cumulative time (in ticks) in various power states
system.cpu.icache.tags.tagsinuse           508.982666                       # Cycle average of tags in use
system.cpu.icache.tags.total_refs             3638228                       # Total number of references to valid blocks.
system.cpu.icache.tags.sampled_refs              2695                       # Sample count of references to valid blocks.
system.cpu.icache.tags.avg_refs           1349.991837                       # Average number of references to valid blocks.
system.cpu.icache.tags.warmup_cycle             79500                       # Cycle when the warmup percentage was hit.
system.cpu.icache.tags.occ_blocks::.cpu.inst   508.982666                       # Average occupied blocks per requestor
system.cpu.icache.tags.occ_percent::.cpu.inst     0.994107                       # Average percentage of cache occupancy
system.cpu.icache.tags.occ_percent::total     0.994107                       # Average percentage of cache occupancy
system.cpu.icache.tags.occ_task_id_blocks::1024          511                       # Occupied blocks per task id
system.cpu.icache.tags.age_task_id_blocks_1024::3          511                       # Occupied blocks per task id
system.cpu.icache.tags.occ_task_id_percent::1024     0.998047                       # Percentage of cache occupancy per task id
system.cpu.icache.tags.tag_accesses           7281135                       # Number of tag accesses
system.cpu.icache.tags.data_accesses          7281135                       # Number of data accesses
system.cpu.icache.tags.power_state.pwrStateResidencyTicks::UNDEFINED   7961566000                       # Cumulative time (in ticks) in various power states
system.cpu.interrupts.clk_domain.clock           8000                       # Clock period in ticks
system.cpu.itb.rdAccesses                           0                       # TLB accesses on read requests
system.cpu.itb.wrAccesses                     3639847                       # TLB accesses on write requests
system.cpu.itb.rdMisses                             0                       # TLB misses on read requests
system.cpu.itb.wrMisses                           852                       # TLB misses on write requests
system.cpu.itb.walker.power_state.pwrStateResidencyTicks::UNDEFINED   7961566000                       # Cumulative time (in ticks) in various power states
system.cpu.itb_walker_cache.blocked_cycles::no_mshrs            0                       # number of cycles access was blocked
system.cpu.itb_walker_cache.blocked_cycles::no_targets            0                       # number of cycles access was blocked
system.cpu.itb_walker_cache.blocked::no_mshrs            0                       # number of cycles access was blocked
system.cpu.itb_walker_cache.blocked::no_targets            0                       # number of cycles access was blocked
system.cpu.itb_walker_cache.avg_blocked_cycles::no_mshrs          nan                       # average number of cycles each access was blocked
system.cpu.itb_walker_cache.avg_blocked_cycles::no_targets          nan                       # average number of cycles each access was blocked
system.cpu.itb_walker_cache.replacements            0                       # number of replacements
system.cpu.itb_walker_cache.power_state.pwrStateResidencyTicks::UNDEFINED   7961566000                       # Cumulative time (in ticks) in various power states
system.cpu.itb_walker_cache.tags.tagsinuse            0                       # Cycle average of tags in use
system.cpu.itb_walker_cache.tags.total_refs            0                       # Total number of references to valid blocks.
system.cpu.itb_walker_cache.tags.sampled_refs            0                       # Sample count of references to valid blocks.
system.cpu.itb_walker_cache.tags.avg_refs          nan                       # Average number of references to valid blocks.
system.cpu.itb_walker_cache.tags.warmup_cycle            0                       # Cycle when the warmup percentage was hit.
system.cpu.itb_walker_cache.tags.tag_accesses            0                       # Number of tag accesses
system.cpu.itb_walker_cache.tags.data_accesses            0                       # Number of data accesses
system.cpu.itb_walker_cache.tags.power_state.pwrStateResidencyTicks::UNDEFINED   7961566000                       # Cumulative time (in ticks) in various power states
system.cpu.lsq0.forwLoads                      447062                       # Number of loads that had data forwarded from stores
system.cpu.lsq0.squashedLoads                   81665                       # Number of loads squashed
system.cpu.lsq0.ignoredResponses                   65                       # Number of memory responses ignored because the instruction is squashed
system.cpu.lsq0.memOrderViolation                 164                       # Number of memory ordering violations
system.cpu.lsq0.squashedStores                  28223                       # Number of stores squashed
system.cpu.lsq0.rescheduledLoads                   82                       # Number of loads that were rescheduled
system.cpu.lsq0.blockedByCache                    499                       # Number of times an access to memory failed due to the cache being blocked
system.cpu.power_state.pwrStateResidencyTicks::ON   7961566000                       # Cumulative time (in ticks) in various power states
system.cpu.rename.squashCycles                  14359                       # Number of cycles rename is squashing
system.cpu.rename.idleCycles                  2964057                       # Number of cycles rename is idle
system.cpu.rename.blockCycles                  304550                       # Number of cycles rename is blocking
system.cpu.rename.serializeStallCycles           2865                       # count of cycles rename stalledfor serializing inst
system.cpu.rename.runCycles                   5664057                       # Number of cycles rename is running
system.cpu.rename.unblockCycles               6833689                       # Number of cycles rename is unblocking
system.cpu.rename.renamedInsts               53949161                       # Number of instructions processed by rename
system.cpu.rename.ROBFullEvents                  3217                       # Number of times rename has blocked due to ROB full
system.cpu.rename.IQFullEvents                5554294                       # Number of times rename has blocked due to IQ full
system.cpu.rename.LQFullEvents                   1156                       # Number of times rename has blocked due to LQ full
system.cpu.rename.SQFullEvents                 387434                       # Number of times rename has blocked due to SQ full
system.cpu.rename.renamedOperands            60811718                       # Number of destination operands rename has renamed
system.cpu.rename.lookups                   122506622                       # Number of register rename lookups that rename has made
system.cpu.rename.intLookups                 52933743                       # Number of integer rename lookups
system.cpu.rename.fpLookups                  38347293                       # Number of floating rename lookups
system.cpu.rename.committedMaps              59790726                       # Number of HB maps that are committed
system.cpu.rename.undoneMaps                  1020843                       # Number of HB maps that are undone due to squashing
system.cpu.rename.serializing                      63                       # count of serializing insts renamed
system.cpu.rename.tempSerializing                  29                       # count of temporary serializing insts renamed
system.cpu.rename.skidInsts                  15709876                       # count of insts added to the skid buffer
system.cpu.rob.reads                         66788728                       # The number of ROB reads
system.cpu.rob.writes                       107741359                       # The number of ROB writes
system.cpu.thread_0.numInsts                 30000000                       # Number of Instructions committed
system.cpu.thread_0.numOps                   53136004                       # Number of Ops committed
system.cpu.thread_0.numMemRefs                      0                       # Number of Memory References
system.cpu_clk_domain.clock                       500                       # Clock period in ticks
system.cpu_voltage_domain.voltage                   1                       # Voltage in Volts
system.l2.demand_hits::.cpu.inst                  526                       # number of demand (read+write) hits
system.l2.demand_hits::.cpu.data                 2177                       # number of demand (read+write) hits
system.l2.demand_hits::total                     2703                       # number of demand (read+write) hits
system.l2.overall_hits::.cpu.inst                 526                       # number of overall hits
system.l2.overall_hits::.cpu.data                2177                       # number of overall hits
system.l2.overall_hits::total                    2703                       # number of overall hits
system.l2.demand_misses::.cpu.inst               2167                       # number of demand (read+write) misses
system.l2.demand_misses::.cpu.data              31780                       # number of demand (read+write) misses
system.l2.demand_misses::total                  33947                       # number of demand (read+write) misses
system.l2.overall_misses::.cpu.inst              2167                       # number of overall misses
system.l2.overall_misses::.cpu.data             31780                       # number of overall misses
system.l2.overall_misses::total                 33947                       # number of overall misses
system.l2.demand_miss_latency::.cpu.inst    149415000                       # number of demand (read+write) miss cycles
system.l2.demand_miss_latency::.cpu.data   2266804000                       # number of demand (read+write) miss cycles
system.l2.demand_miss_latency::total       2416219000                       # number of demand (read+write) miss cycles
system.l2.overall_miss_latency::.cpu.inst    149415000                       # number of overall miss cycles
system.l2.overall_miss_latency::.cpu.data   2266804000                       # number of overall miss cycles
system.l2.overall_miss_latency::total      2416219000                       # number of overall miss cycles
system.l2.demand_accesses::.cpu.inst             2693                       # number of demand (read+write) accesses
system.l2.demand_accesses::.cpu.data            33957                       # number of demand (read+write) accesses
system.l2.demand_accesses::total                36650                       # number of demand (read+write) accesses
system.l2.overall_accesses::.cpu.inst            2693                       # number of overall (read+write) accesses
system.l2.overall_accesses::.cpu.data           33957                       # number of overall (read+write) accesses
system.l2.overall_accesses::total               36650                       # number of overall (read+write) accesses
system.l2.demand_miss_rate::.cpu.inst        0.804679                       # miss rate for demand accesses
system.l2.demand_miss_rate::.cpu.data        0.935890                       # miss rate for demand accesses
system.l2.demand_miss_rate::total            0.926248                       # miss rate for demand accesses
system.l2.overall_miss_rate::.cpu.inst       0.804679                       # miss rate for overall accesses
system.l2.overall_miss_rate::.cpu.data       0.935890                       # miss rate for overall accesses
system.l2.overall_miss_rate::total           0.926248                       # miss rate for overall accesses
system.l2.demand_avg_miss_latency::.cpu.inst 68950.161514                       # average overall miss latency
system.l2.demand_avg_miss_latency::.cpu.data 71328.005035                       # average overall miss latency
system.l2.demand_avg_miss_latency::total 71176.215866                       # average overall miss latency
system.l2.overall_avg_miss_latency::.cpu.inst 68950.161514                       # average overall miss latency
system.l2.overall_avg_miss_latency::.cpu.data 71328.005035                       # average overall miss latency
system.l2.overall_avg_miss_latency::total 71176.215866                       # average overall miss latency
system.l2.blocked_cycles::no_mshrs                  0                       # number of cycles access was blocked
[...]
system.mem_ctrls.dram.bw_total::.cpu.data    255467329                       # Total bandwidth to/from this memory (bytes/s)
system.mem_ctrls.dram.bw_total::total       442501890                       # Total bandwidth to/from this memory (bytes/s)
system.mem_ctrls.dram.readBursts                33941                       # Number of DRAM read bursts
system.mem_ctrls.dram.writeBursts               21085                       # Number of DRAM write bursts
system.mem_ctrls.dram.perBankRdBursts::0         2297                       # Per bank write bursts
system.mem_ctrls.dram.perBankRdBursts::1         2161                       # Per bank write bursts
system.mem_ctrls.dram.perBankRdBursts::2         2105                       # Per bank write bursts
system.mem_ctrls.dram.perBankRdBursts::3         2060                       # Per bank write bursts
system.mem_ctrls.dram.perBankRdBursts::4         2140                       # Per bank write bursts
system.mem_ctrls.dram.perBankRdBursts::5         2121                       # Per bank write bursts
system.mem_ctrls.dram.perBankRdBursts::6         2165                       # Per bank write bursts
system.mem_ctrls.dram.perBankRdBursts::7         2104                       # Per bank write bursts
system.mem_ctrls.dram.perBankRdBursts::8         2110                       # Per bank write bursts
system.mem_ctrls.dram.perBankRdBursts::9         2064                       # Per bank write bursts
system.mem_ctrls.dram.perBankRdBursts::10         1943                       # Per bank write bursts
system.mem_ctrls.dram.perBankRdBursts::11         2179                       # Per bank write bursts
system.mem_ctrls.dram.perBankRdBursts::12         2046                       # Per bank write bursts
system.mem_ctrls.dram.perBankRdBursts::13         2042                       # Per bank write bursts
system.mem_ctrls.dram.perBankRdBursts::14         2209                       # Per bank write bursts
system.mem_ctrls.dram.perBankRdBursts::15         2195                       # Per bank write bursts
system.mem_ctrls.dram.perBankWrBursts::0         1339                       # Per bank write bursts
system.mem_ctrls.dram.perBankWrBursts::1         1283                       # Per bank write bursts
system.mem_ctrls.dram.perBankWrBursts::2         1347                       # Per bank write bursts
system.mem_ctrls.dram.perBankWrBursts::3         1264                       # Per bank write bursts
system.mem_ctrls.dram.perBankWrBursts::4         1254                       # Per bank write bursts
system.mem_ctrls.dram.perBankWrBursts::5         1398                       # Per bank write bursts
system.mem_ctrls.dram.perBankWrBursts::6         1399                       # Per bank write bursts
system.mem_ctrls.dram.perBankWrBursts::7         1333                       # Per bank write bursts
system.mem_ctrls.dram.perBankWrBursts::8         1289                       # Per bank write bursts
system.mem_ctrls.dram.perBankWrBursts::9         1218                       # Per bank write bursts
system.mem_ctrls.dram.perBankWrBursts::10         1268                       # Per bank write bursts
system.mem_ctrls.dram.perBankWrBursts::11         1335                       # Per bank write bursts
system.mem_ctrls.dram.perBankWrBursts::12         1243                       # Per bank write bursts
system.mem_ctrls.dram.perBankWrBursts::13         1290                       # Per bank write bursts
system.mem_ctrls.dram.perBankWrBursts::14         1482                       # Per bank write bursts
system.mem_ctrls.dram.perBankWrBursts::15         1343                       # Per bank write bursts
system.mem_ctrls.dram.totQLat               312449250                       # Total ticks spent queuing
system.mem_ctrls.dram.totBusLat             169705000                       # Total ticks spent in databus transfers
system.mem_ctrls.dram.totMemAccLat          948843000                       # Total ticks spent from burst creation until serviced by the DRAM
system.mem_ctrls.dram.avgQLat                 9205.66                       # Average queueing delay per DRAM burst
system.mem_ctrls.dram.avgBusLat               5000.00                       # Average bus latency per DRAM burst
system.mem_ctrls.dram.avgMemAccLat           27955.66                       # Average memory access latency per DRAM burst
system.mem_ctrls.dram.readRowHits               29278                       # Number of row buffer hits during reads
system.mem_ctrls.dram.writeRowHits              18538                       # Number of row buffer hits during writes
system.mem_ctrls.dram.readRowHitRate            86.26                       # Row buffer hit rate for reads
system.mem_ctrls.dram.writeRowHitRate           87.92                       # Row buffer hit rate for writes
system.mem_ctrls.dram.bytesPerActivate::samples         7208                       # Bytes accessed per row activation
system.mem_ctrls.dram.bytesPerActivate::mean   488.417314                       # Bytes accessed per row activation
system.mem_ctrls.dram.bytesPerActivate::gmean   333.994427                       # Bytes accessed per row activation
system.mem_ctrls.dram.bytesPerActivate::stdev   358.046041                       # Bytes accessed per row activation
system.mem_ctrls.dram.bytesPerActivate::0-127          995     13.80%     13.80% # Bytes accessed per row activation
system.mem_ctrls.dram.bytesPerActivate::128-255         1540     21.37%     35.17% # Bytes accessed per row activation
system.mem_ctrls.dram.bytesPerActivate::256-383          826     11.46%     46.63% # Bytes accessed per row activation
system.mem_ctrls.dram.bytesPerActivate::384-511          570      7.91%     54.54% # Bytes accessed per row activation
system.mem_ctrls.dram.bytesPerActivate::512-639          719      9.98%     64.51% # Bytes accessed per row activation
system.mem_ctrls.dram.bytesPerActivate::640-767          335      4.65%     69.16% # Bytes accessed per row activation
system.mem_ctrls.dram.bytesPerActivate::768-895          326      4.52%     73.68% # Bytes accessed per row activation
system.mem_ctrls.dram.bytesPerActivate::896-1023          685      9.50%     83.19% # Bytes accessed per row activation
system.mem_ctrls.dram.bytesPerActivate::1024-1151         1212     16.81%    100.00% # Bytes accessed per row activation
system.mem_ctrls.dram.bytesPerActivate::total         7208                       # Bytes accessed per row activation
system.mem_ctrls.dram.bytesRead               2172224                       # Total number of bytes read from DRAM
system.mem_ctrls.dram.bytesWritten            1349440                       # Total number of bytes written to DRAM
system.mem_ctrls.dram.avgRdBW              272.838786                       # Average DRAM read bandwidth in MiBytes/s
system.mem_ctrls.dram.avgWrBW              169.494293                       # Average DRAM write bandwidth in MiBytes/s
system.mem_ctrls.dram.peakBW                 12800.00                       # Theoretical peak bandwidth in MiByte/s
system.mem_ctrls.dram.busUtil                    3.46                       # Data bus utilization in percentage
system.mem_ctrls.dram.busUtilRead                2.13                       # Data bus utilization in percentage for reads
system.mem_ctrls.dram.busUtilWrite               1.32                       # Data bus utilization in percentage for writes
system.mem_ctrls.dram.pageHitRate               86.90                       # Row buffer hit rate, read and write combined
system.mem_ctrls.dram.power_state.pwrStateResidencyTicks::UNDEFINED   7961566000                       # Cumulative time (in ticks) in various power states
system.mem_ctrls.dram.rank0.actEnergy        26246640                       # Energy for activate commands per rank (pJ)
system.mem_ctrls.dram.rank0.preEnergy        13942830                       # Energy for precharge commands per rank (pJ)
system.mem_ctrls.dram.rank0.readEnergy      122472420                       # Energy for read commands per rank (pJ)
system.mem_ctrls.dram.rank0.writeEnergy      55410300                       # Energy for write commands per rank (pJ)
system.mem_ctrls.dram.rank0.refreshEnergy 628162080.000000                       # Energy for refresh commands per rank (pJ)
system.mem_ctrls.dram.rank0.actBackEnergy   2491560630                       # Energy for active background per rank (pJ)
system.mem_ctrls.dram.rank0.preBackEnergy    959085120                       # Energy for precharge background per rank (pJ)
system.mem_ctrls.dram.rank0.actPowerDownEnergy            0                       # Energy for active power-down per rank (pJ)
system.mem_ctrls.dram.rank0.prePowerDownEnergy            0                       # Energy for precharge power-down per rank (pJ)
system.mem_ctrls.dram.rank0.selfRefreshEnergy            0                       # Energy for self refresh per rank (pJ)
system.mem_ctrls.dram.rank0.totalEnergy    4296880020                       # Total energy per rank (pJ)
system.mem_ctrls.dram.rank0.averagePower   539.702870                       # Core power per rank (mW)
system.mem_ctrls.dram.rank0.totalIdleTime            0                       # Total Idle time Per DRAM Rank
system.mem_ctrls.dram.rank0.pwrStateTime::IDLE   2463126750                       # Time in different power states
system.mem_ctrls.dram.rank0.pwrStateTime::REF    265720000                       # Time in different power states
system.mem_ctrls.dram.rank0.pwrStateTime::SREF            0                       # Time in different power states
system.mem_ctrls.dram.rank0.pwrStateTime::PRE_PDN            0                       # Time in different power states
system.mem_ctrls.dram.rank0.pwrStateTime::ACT   5232719250                       # Time in different power states
system.mem_ctrls.dram.rank0.pwrStateTime::ACT_PDN            0                       # Time in different power states
system.mem_ctrls.dram.rank1.actEnergy        25232760                       # Energy for activate commands per rank (pJ)
system.mem_ctrls.dram.rank1.preEnergy        13411530                       # Energy for precharge commands per rank (pJ)
system.mem_ctrls.dram.rank1.readEnergy      119866320                       # Energy for read commands per rank (pJ)
system.mem_ctrls.dram.rank1.writeEnergy      54642960                       # Energy for write commands per rank (pJ)
system.mem_ctrls.dram.rank1.refreshEnergy 628162080.000000                       # Energy for refresh commands per rank (pJ)
system.mem_ctrls.dram.rank1.actBackEnergy   2502379230                       # Energy for active background per rank (pJ)
system.mem_ctrls.dram.rank1.preBackEnergy    949974720                       # Energy for precharge background per rank (pJ)
system.mem_ctrls.dram.rank1.actPowerDownEnergy            0                       # Energy for active power-down per rank (pJ)
system.mem_ctrls.dram.rank1.prePowerDownEnergy            0                       # Energy for precharge power-down per rank (pJ)
system.mem_ctrls.dram.rank1.selfRefreshEnergy            0                       # Energy for self refresh per rank (pJ)
system.mem_ctrls.dram.rank1.totalEnergy    4293669600                       # Total energy per rank (pJ)
system.mem_ctrls.dram.rank1.averagePower   539.299630                       # Core power per rank (mW)
system.mem_ctrls.dram.rank1.totalIdleTime            0                       # Total Idle time Per DRAM Rank
system.mem_ctrls.dram.rank1.pwrStateTime::IDLE   2439940500                       # Time in different power states
system.mem_ctrls.dram.rank1.pwrStateTime::REF    265720000                       # Time in different power states
system.mem_ctrls.dram.rank1.pwrStateTime::SREF            0                       # Time in different power states
system.mem_ctrls.dram.rank1.pwrStateTime::PRE_PDN            0                       # Time in different power states
system.mem_ctrls.dram.rank1.pwrStateTime::ACT   5255905500                       # Time in different power states
system.mem_ctrls.dram.rank1.pwrStateTime::ACT_PDN            0                       # Time in different power states
system.mem_ctrls.power_state.pwrStateResidencyTicks::UNDEFINED   7961566000                       # Cumulative time (in ticks) in various power states
system.membus.trans_dist::ReadResp               4763                       # Transaction distribution
system.membus.trans_dist::WritebackDirty        21100                       # Transaction distribution
system.membus.trans_dist::CleanEvict             4138                       # Transaction distribution
system.membus.trans_dist::ReadExReq             29184                       # Transaction distribution
system.membus.trans_dist::ReadExResp            29184                       # Transaction distribution
system.membus.trans_dist::ReadSharedReq          4763                       # Transaction distribution
system.membus.pkt_count_system.l2.mem_side_port::system.mem_ctrls.port        93132                       # Packet count per connected requestor and responder (bytes)
system.membus.pkt_count_system.l2.mem_side_port::total        93132                       # Packet count per connected requestor and responder (bytes)
system.membus.pkt_count::total                  93132                       # Packet count per connected requestor and responder (bytes)
system.membus.pkt_size_system.l2.mem_side_port::system.mem_ctrls.port      3523008                       # Cumulative packet size per connected requestor and responder (bytes)
system.membus.pkt_size_system.l2.mem_side_port::total      3523008                       # Cumulative packet size per connected requestor and responder (bytes)
system.membus.pkt_size::total                 3523008                       # Cumulative packet size per connected requestor and responder (bytes)
system.membus.snoops                                0                       # Total snoops (count)
system.membus.snoopTraffic                          0                       # Total snoop traffic (bytes)
system.membus.snoop_fanout::samples             33947                       # Request fanout histogram
system.membus.snoop_fanout::mean                    0                       # Request fanout histogram
system.membus.snoop_fanout::stdev                   0                       # Request fanout histogram
system.membus.snoop_fanout::underflows              0      0.00%      0.00% # Request fanout histogram
system.membus.snoop_fanout::0                   33947    100.00%    100.00% # Request fanout histogram
system.membus.snoop_fanout::1                       0      0.00%    100.00% # Request fanout histogram
system.membus.snoop_fanout::overflows               0      0.00%    100.00% # Request fanout histogram
system.membus.snoop_fanout::min_value               0                       # Request fanout histogram
system.membus.snoop_fanout::max_value               0                       # Request fanout histogram
system.membus.snoop_fanout::total               33947                       # Request fanout histogram
system.membus.power_state.pwrStateResidencyTicks::UNDEFINED   7961566000                       # Cumulative time (in ticks) in various power states
system.membus.reqLayer2.occupancy            35896250                       # Layer occupancy (ticks)
system.membus.reqLayer2.utilization               0.5                       # Layer utilization (%)
system.membus.respLayer1.occupancy           42433750                       # Layer occupancy (ticks)
system.membus.respLayer1.utilization              0.5                       # Layer utilization (%)
system.tol2bus.trans_dist::ReadResp              7118                       # Transaction distribution
system.tol2bus.trans_dist::WritebackDirty        51283                       # Transaction distribution
system.tol2bus.trans_dist::WritebackClean         2184                       # Transaction distribution
system.tol2bus.trans_dist::CleanEvict            7922                       # Transaction distribution
system.tol2bus.trans_dist::ReadExReq            29534                       # Transaction distribution
system.tol2bus.trans_dist::ReadExResp           29534                       # Transaction distribution
system.tol2bus.trans_dist::ReadCleanReq          2695                       # Transaction distribution
system.tol2bus.trans_dist::ReadSharedReq         4423                       # Transaction distribution
system.tol2bus.pkt_count_system.cpu.icache.mem_side_port::system.l2.cpu_side_port         7572                       # Packet count per connected requestor and responder (bytes)
system.tol2bus.pkt_count_system.cpu.dcache.mem_side_port::system.l2.cpu_side_port       101359                       # Packet count per connected requestor and responder (bytes)
system.tol2bus.pkt_count::total                108931                       # Packet count per connected requestor and responder (bytes)
system.tol2bus.pkt_size_system.cpu.icache.mem_side_port::system.l2.cpu_side_port       312128                       # Cumulative packet size per connected requestor and responder (bytes)
system.tol2bus.pkt_size_system.cpu.dcache.mem_side_port::system.l2.cpu_side_port      4104960                       # Cumulative packet size per connected requestor and responder (bytes)
system.tol2bus.pkt_size::total                4417088                       # Cumulative packet size per connected requestor and responder (bytes)
system.tol2bus.snoops                           25762                       # Total snoops (count)
system.tol2bus.snoopTraffic                   1350528                       # Total snoop traffic (bytes)
system.tol2bus.snoop_fanout::samples            62412                       # Request fanout histogram
system.tol2bus.snoop_fanout::mean            0.008540                       # Request fanout histogram
system.tol2bus.snoop_fanout::stdev           0.092018                       # Request fanout histogram
system.tol2bus.snoop_fanout::underflows             0      0.00%      0.00% # Request fanout histogram
system.tol2bus.snoop_fanout::0                  61879     99.15%     99.15% # Request fanout histogram
system.tol2bus.snoop_fanout::1                    533      0.85%    100.00% # Request fanout histogram
system.tol2bus.snoop_fanout::2                      0      0.00%    100.00% # Request fanout histogram
system.tol2bus.snoop_fanout::3                      0      0.00%    100.00% # Request fanout histogram
system.tol2bus.snoop_fanout::4                      0      0.00%    100.00% # Request fanout histogram
system.tol2bus.snoop_fanout::overflows              0      0.00%    100.00% # Request fanout histogram
system.tol2bus.snoop_fanout::min_value              0                       # Request fanout histogram
system.tol2bus.snoop_fanout::max_value              1                       # Request fanout histogram
system.tol2bus.snoop_fanout::total              62412                       # Request fanout histogram
system.tol2bus.power_state.pwrStateResidencyTicks::UNDEFINED   7961566000                       # Cumulative time (in ticks) in various power states
system.tol2bus.reqLayer0.occupancy           68507500                       # Layer occupancy (ticks)
system.tol2bus.reqLayer0.utilization              0.9                       # Layer utilization (%)
system.tol2bus.respLayer0.occupancy           4044496                       # Layer occupancy (ticks)
system.tol2bus.respLayer0.utilization             0.1                       # Layer utilization (%)
system.tol2bus.respLayer1.occupancy          50935500                       # Layer occupancy (ticks)
system.tol2bus.respLayer1.utilization             0.6                       # Layer utilization (%)
system.voltage_domain.voltage                       1                       # Voltage in Volts

---------- End Simulation Statistics   ----------
