
---------- Begin Simulation Statistics ----------
final_tick                                   40281000                       # Number of ticks from beginning of simulation (restored from checkpoints and never reset)
host_inst_rate                                 199412                       # Simulator instruction rate (inst/s)
host_mem_usage                                2218488                       # Number of bytes of host memory used
host_op_rate                                   395053                       # Simulator op (including micro ops) rate (op/s)
host_seconds                                     0.16                       # Real time elapsed on the host
host_tick_rate                               52037225                       # Simulator tick rate (ticks/s)
sim_freq                                 1000000000000                       # Frequency of simulated ticks
sim_insts                                       32571                       # Number of instructions simulated
sim_ops                                         64626                       # Number of ops (including micro ops) simulated
sim_seconds                                  0.000009                       # Number of seconds simulated
sim_ticks                                     8516000                       # Number of ticks simulated
system.cpu.cc_regfile_reads                     10254                       # number of cc regfile reads
system.cpu.cc_regfile_writes                     8255                       # number of cc regfile writes
system.cpu.committedInsts                       24662                       # Number of Instructions Simulated
system.cpu.committedOps                         49305                       # Number of Ops (including micro ops) Simulated
system.cpu.cpi                               0.345309                       # CPI: Cycles Per Instruction
system.cpu.cpi_total                         0.345309                       # CPI: Total CPI of All Threads
system.cpu.fp_regfile_reads                     98470                       # number of floating regfile reads
system.cpu.fp_regfile_writes                    36945                       # number of floating regfile writes
system.cpu.idleCycles                             157                       # Total number of cycles that the CPU has spent unscheduled due to idling
system.cpu.iew.branchMispredicts                    4                       # Number of branch mispredicts detected at execute
system.cpu.iew.exec_branches                     2054                       # Number of branches executed
system.cpu.iew.exec_nop                             0                       # number of nop insts executed
system.cpu.iew.exec_rate                     5.796618                       # Inst execution rate
system.cpu.iew.exec_refs                           23                       # number of memory reference insts executed
system.cpu.iew.exec_stores                          7                       # Number of stores executed
system.cpu.iew.exec_swp                             0                       # number of swp insts executed
system.cpu.iew.iewBlockCycles                       9                       # Number of cycles IEW is blocking
system.cpu.iew.iewDispLoadInsts                    16                       # Number of dispatched load instructions
system.cpu.iew.iewDispNonSpecInsts                  1                       # Number of dispatched non-speculative instructions
system.cpu.iew.iewDispSquashedInsts                 0                       # Number of squashed instructions skipped by dispatch
system.cpu.iew.iewDispStoreInsts                    4                       # Number of dispatched store instructions
system.cpu.iew.iewDispatchedInsts               49378                       # Number of instructions dispatched to IQ
system.cpu.iew.iewExecLoadInsts                    16                       # Number of load instructions executed
system.cpu.iew.iewExecSquashedInsts                14                       # Number of squashed instructions skipped in execute
system.cpu.iew.iewExecutedInsts                 49364                       # Number of executed instructions
system.cpu.iew.iewIQFullEvents                      0                       # Number of times the IQ has become full, causing a stall
system.cpu.iew.iewIdleCycles                        0                       # Number of cycles IEW is idle
system.cpu.iew.iewLSQFullEvents                     0                       # Number of times the LSQ has become full, causing a stall
system.cpu.iew.iewSquashCycles                      5                       # Number of cycles IEW is squashing
system.cpu.iew.iewUnblockCycles                     0                       # Number of cycles IEW is unblocking
system.cpu.iew.memOrderViolationEvents              1                       # Number of memory order violations
system.cpu.iew.predictedNotTakenIncorrect            3                       # Number of branches that were predicted not taken incorrectly
system.cpu.iew.predictedTakenIncorrect              1                       # Number of branches that were predicted taken incorrectly
system.cpu.iew.wb_consumers                     16620                       # num instructions consuming a value
system.cpu.iew.wb_count                         49364                       # cumulative count of insts written-back
system.cpu.iew.wb_fanout                     0.871661                       # average fanout of values written-back
system.cpu.iew.wb_producers                     14487                       # num instructions producing a value
system.cpu.iew.wb_rate                       5.796618                       # insts written-back per cycle
system.cpu.iew.wb_sent                          49364                       # cumulative count of insts sent to commit
system.cpu.int_regfile_reads                    12505                       # number of integer regfile reads
system.cpu.int_regfile_writes                   10356                       # number of integer regfile writes
system.cpu.ipc                               2.895961                       # IPC: Instructions Per Cycle
system.cpu.ipc_total                         2.895961                       # IPC: Total IPC of All Threads
system.cpu.iq.FU_type_0::No_OpClass                 2      0.00%      0.00% # Type of FU issued
system.cpu.iq.FU_type_0::IntAlu                 24697     50.02%     50.03% # Type of FU issued
system.cpu.iq.FU_type_0::IntMult                    1      0.00%     50.03% # Type of FU issued
system.cpu.iq.FU_type_0::IntDiv                     0      0.00%     50.03% # Type of FU issued
system.cpu.iq.FU_type_0::FloatAdd                   2      0.00%     50.03% # Type of FU issued
system.cpu.iq.FU_type_0::FloatCmp                   0      0.00%     50.03% # Type of FU issued
system.cpu.iq.FU_type_0::FloatCvt                   0      0.00%     50.03% # Type of FU issued
system.cpu.iq.FU_type_0::FloatMult                  0      0.00%     50.03% # Type of FU issued
system.cpu.iq.FU_type_0::FloatMultAcc               0      0.00%     50.03% # Type of FU issued
system.cpu.iq.FU_type_0::FloatDiv                   0      0.00%     50.03% # Type of FU issued
system.cpu.iq.FU_type_0::FloatMisc                  0      0.00%     50.03% # Type of FU issued
system.cpu.iq.FU_type_0::FloatSqrt                  0      0.00%     50.03% # Type of FU issued
system.cpu.iq.FU_type_0::SimdAdd                24586     49.80%     99.83% # Type of FU issued
system.cpu.iq.FU_type_0::SimdAddAcc                 0      0.00%     99.83% # Type of FU issued
system.cpu.iq.FU_type_0::SimdAlu                    2      0.00%     99.84% # Type of FU issued
system.cpu.iq.FU_type_0::SimdCmp                    0      0.00%     99.84% # Type of FU issued
system.cpu.iq.FU_type_0::SimdCvt                    0      0.00%     99.84% # Type of FU issued
system.cpu.iq.FU_type_0::SimdMisc                  59      0.12%     99.96% # Type of FU issued
system.cpu.iq.FU_type_0::SimdMult                   0      0.00%     99.96% # Type of FU issued
system.cpu.iq.FU_type_0::SimdMultAcc                0      0.00%     99.96% # Type of FU issued
system.cpu.iq.FU_type_0::SimdShift                  0      0.00%     99.96% # Type of FU issued
system.cpu.iq.FU_type_0::SimdShiftAcc               0      0.00%     99.96% # Type of FU issued
system.cpu.iq.FU_type_0::SimdDiv                    0      0.00%     99.96% # Type of FU issued
system.cpu.iq.FU_type_0::SimdSqrt                   0      0.00%     99.96% # Type of FU issued
system.cpu.iq.FU_type_0::SimdFloatAdd               0      0.00%     99.96% # Type of FU issued
system.cpu.iq.FU_type_0::SimdFloatAlu               0      0.00%     99.96% # Type of FU issued
system.cpu.iq.FU_type_0::SimdFloatCmp               0      0.00%     99.96% # Type of FU issued
system.cpu.iq.FU_type_0::SimdFloatCvt               0      0.00%     99.96% # Type of FU issued
system.cpu.iq.FU_type_0::SimdFloatDiv               0      0.00%     99.96% # Type of FU issued
system.cpu.iq.FU_type_0::SimdFloatMisc              0      0.00%     99.96% # Type of FU issued
system.cpu.iq.FU_type_0::SimdFloatMult              0      0.00%     99.96% # Type of FU issued
system.cpu.iq.FU_type_0::SimdFloatMultAcc            0      0.00%     99.96% # Type of FU issued
system.cpu.iq.FU_type_0::SimdFloatSqrt              0      0.00%     99.96% # Type of FU issued
system.cpu.iq.FU_type_0::SimdReduceAdd              0      0.00%     99.96% # Type of FU issued
system.cpu.iq.FU_type_0::SimdReduceAlu              0      0.00%     99.96% # Type of FU issued
system.cpu.iq.FU_type_0::SimdReduceCmp              0      0.00%     99.96% # Type of FU issued
system.cpu.iq.FU_type_0::SimdFloatReduceAdd            0      0.00%     99.96% # Type of FU issued
system.cpu.iq.FU_type_0::SimdFloatReduceCmp            0      0.00%     99.96% # Type of FU issued
system.cpu.iq.FU_type_0::SimdAes                    0      0.00%     99.96% # Type of FU issued
system.cpu.iq.FU_type_0::SimdAesMix                 0      0.00%     99.96% # Type of FU issued
system.cpu.iq.FU_type_0::SimdSha1Hash               0      0.00%     99.96% # Type of FU issued
system.cpu.iq.FU_type_0::SimdSha1Hash2              0      0.00%     99.96% # Type of FU issued
system.cpu.iq.FU_type_0::SimdSha256Hash             0      0.00%     99.96% # Type of FU issued
system.cpu.iq.FU_type_0::SimdSha256Hash2            0      0.00%     99.96% # Type of FU issued
system.cpu.iq.FU_type_0::SimdShaSigma2              0      0.00%     99.96% # Type of FU issued
system.cpu.iq.FU_type_0::SimdShaSigma3              0      0.00%     99.96% # Type of FU issued
system.cpu.iq.FU_type_0::SimdPredAlu                0      0.00%     99.96% # Type of FU issued
system.cpu.iq.FU_type_0::MemRead                    8      0.02%     99.97% # Type of FU issued
system.cpu.iq.FU_type_0::MemWrite                   6      0.01%     99.98% # Type of FU issued
system.cpu.iq.FU_type_0::FloatMemRead               8      0.02%    100.00% # Type of FU issued
system.cpu.iq.FU_type_0::FloatMemWrite              0      0.00%    100.00% # Type of FU issued
system.cpu.iq.FU_type_0::IprAccess                  0      0.00%    100.00% # Type of FU issued
system.cpu.iq.FU_type_0::InstPrefetch               0      0.00%    100.00% # Type of FU issued
system.cpu.iq.FU_type_0::total                  49371                       # Type of FU issued
system.cpu.iq.fp_alu_accesses                   43117                       # Number of floating point alu accesses
system.cpu.iq.fp_inst_queue_reads               80093                       # Number of floating instruction queue reads
system.cpu.iq.fp_inst_queue_wakeup_accesses        36965                       # Number of floating instruction queue wakeup accesses
system.cpu.iq.fp_inst_queue_writes              37040                       # Number of floating instruction queue writes
system.cpu.iq.fu_busy_cnt                        6149                       # FU busy when requested
system.cpu.iq.fu_busy_rate                   0.124547                       # FU busy rate (busy events/executed inst)
system.cpu.iq.fu_full::No_OpClass                   0      0.00%      0.00% # attempts to use FU when none available
system.cpu.iq.fu_full::IntAlu                    2045     33.26%     33.26% # attempts to use FU when none available
system.cpu.iq.fu_full::IntMult                      0      0.00%     33.26% # attempts to use FU when none available
system.cpu.iq.fu_full::IntDiv                       0      0.00%     33.26% # attempts to use FU when none available
system.cpu.iq.fu_full::FloatAdd                     0      0.00%     33.26% # attempts to use FU when none available
system.cpu.iq.fu_full::FloatCmp                     0      0.00%     33.26% # attempts to use FU when none available
system.cpu.iq.fu_full::FloatCvt                     0      0.00%     33.26% # attempts to use FU when none available
system.cpu.iq.fu_full::FloatMult                    0      0.00%     33.26% # attempts to use FU when none available
system.cpu.iq.fu_full::FloatMultAcc                 0      0.00%     33.26% # attempts to use FU when none available
system.cpu.iq.fu_full::FloatDiv                     0      0.00%     33.26% # attempts to use FU when none available
system.cpu.iq.fu_full::FloatMisc                    0      0.00%     33.26% # attempts to use FU when none available
system.cpu.iq.fu_full::FloatSqrt                    0      0.00%     33.26% # attempts to use FU when none available
system.cpu.iq.fu_full::SimdAdd                   4095     66.60%     99.85% # attempts to use FU when none available
system.cpu.iq.fu_full::SimdAddAcc                   0      0.00%     99.85% # attempts to use FU when none available
system.cpu.iq.fu_full::SimdAlu                      0      0.00%     99.85% # attempts to use FU when none available
system.cpu.iq.fu_full::SimdCmp                      0      0.00%     99.85% # attempts to use FU when none available
system.cpu.iq.fu_full::SimdCvt                      0      0.00%     99.85% # attempts to use FU when none available
system.cpu.iq.fu_full::SimdMisc                     9      0.15%    100.00% # attempts to use FU when none available
system.cpu.iq.fu_full::SimdMult                     0      0.00%    100.00% # attempts to use FU when none available
system.cpu.iq.fu_full::SimdMultAcc                  0      0.00%    100.00% # attempts to use FU when none available
system.cpu.iq.fu_full::SimdShift                    0      0.00%    100.00% # attempts to use FU when none available
system.cpu.iq.fu_full::SimdShiftAcc                 0      0.00%    100.00% # attempts to use FU when none available
system.cpu.iq.fu_full::SimdDiv                      0      0.00%    100.00% # attempts to use FU when none available
system.cpu.iq.fu_full::SimdSqrt                     0      0.00%    100.00% # attempts to use FU when none available
system.cpu.iq.fu_full::SimdFloatAdd                 0      0.00%    100.00% # attempts to use FU when none available
system.cpu.iq.fu_full::SimdFloatAlu                 0      0.00%    100.00% # attempts to use FU when none available
system.cpu.iq.fu_full::SimdFloatCmp                 0      0.00%    100.00% # attempts to use FU when none available
system.cpu.iq.fu_full::SimdFloatCvt                 0      0.00%    100.00% # attempts to use FU when none available
system.cpu.iq.fu_full::SimdFloatDiv                 0      0.00%    100.00% # attempts to use FU when none available
system.cpu.iq.fu_full::SimdFloatMisc                0      0.00%    100.00% # attempts to use FU when none available
system.cpu.iq.fu_full::SimdFloatMult                0      0.00%    100.00% # attempts to use FU when none available
system.cpu.iq.fu_full::SimdFloatMultAcc             0      0.00%    100.00% # attempts to use FU when none available
system.cpu.iq.fu_full::SimdFloatSqrt                0      0.00%    100.00% # attempts to use FU when none available
system.cpu.iq.fu_full::SimdReduceAdd                0      0.00%    100.00% # attempts to use FU when none available
system.cpu.iq.fu_full::SimdReduceAlu                0      0.00%    100.00% # attempts to use FU when none available
system.cpu.iq.fu_full::SimdReduceCmp                0      0.00%    100.00% # attempts to use FU when none available
system.cpu.iq.fu_full::SimdFloatReduceAdd            0      0.00%    100.00% # attempts to use FU when none available
system.cpu.iq.fu_full::SimdFloatReduceCmp            0      0.00%    100.00% # attempts to use FU when none available
system.cpu.iq.fu_full::SimdAes                      0      0.00%    100.00% # attempts to use FU when none available
system.cpu.iq.fu_full::SimdAesMix                   0      0.00%    100.00% # attempts to use FU when none available
system.cpu.iq.fu_full::SimdSha1Hash                 0      0.00%    100.00% # attempts to use FU when none available
system.cpu.iq.fu_full::SimdSha1Hash2                0      0.00%    100.00% # attempts to use FU when none available
system.cpu.iq.fu_full::SimdSha256Hash               0      0.00%    100.00% # attempts to use FU when none available
system.cpu.iq.fu_full::SimdSha256Hash2              0      0.00%    100.00% # attempts to use FU when none available
system.cpu.iq.fu_full::SimdShaSigma2                0      0.00%    100.00% # attempts to use FU when none available
system.cpu.iq.fu_full::SimdShaSigma3                0      0.00%    100.00% # attempts to use FU when none available
system.cpu.iq.fu_full::SimdPredAlu                  0      0.00%    100.00% # attempts to use FU when none available
system.cpu.iq.fu_full::MemRead                      0      0.00%    100.00% # attempts to use FU when none available
system.cpu.iq.fu_full::MemWrite                     0      0.00%    100.00% # attempts to use FU when none available
system.cpu.iq.fu_full::FloatMemRead                 0      0.00%    100.00% # attempts to use FU when none available
system.cpu.iq.fu_full::FloatMemWrite                0      0.00%    100.00% # attempts to use FU when none available
system.cpu.iq.fu_full::IprAccess                    0      0.00%    100.00% # attempts to use FU when none available
system.cpu.iq.fu_full::InstPrefetch                 0      0.00%    100.00% # attempts to use FU when none available
system.cpu.iq.int_alu_accesses                  12401                       # Number of integer alu accesses
system.cpu.iq.int_inst_queue_reads              33168                       # Number of integer instruction queue reads
system.cpu.iq.int_inst_queue_wakeup_accesses        12399                       # Number of integer instruction queue wakeup accesses
system.cpu.iq.int_inst_queue_writes             12430                       # Number of integer instruction queue writes
system.cpu.iq.iqInstsAdded                      49377                       # Number of instructions added to the IQ (excludes non-spec)
system.cpu.iq.iqInstsIssued                     49371                       # Number of instructions issued
system.cpu.iq.iqNonSpecInstsAdded                   1                       # Number of non-speculative instructions added to the IQ
system.cpu.iq.iqSquashedInstsExamined              91                       # Number of squashed instructions iterated over during squash; mainly for profiling
system.cpu.iq.iqSquashedInstsIssued                 4                       # Number of squashed instructions issued
system.cpu.iq.iqSquashedOperandsExamined           29                       # Number of squashed operands that are examined and possibly removed from graph
system.cpu.iq.issued_per_cycle::samples          8359                       # Number of insts issued each cycle
system.cpu.iq.issued_per_cycle::mean         5.906329                       # Number of insts issued each cycle
system.cpu.iq.issued_per_cycle::stdev        1.021640                       # Number of insts issued each cycle
system.cpu.iq.issued_per_cycle::underflows            0      0.00%      0.00% # Number of insts issued each cycle
system.cpu.iq.issued_per_cycle::0                 120      1.44%      1.44% # Number of insts issued each cycle
system.cpu.iq.issued_per_cycle::1                   6      0.07%      1.51% # Number of insts issued each cycle
system.cpu.iq.issued_per_cycle::2                   4      0.05%      1.56% # Number of insts issued each cycle
system.cpu.iq.issued_per_cycle::3                   8      0.10%      1.65% # Number of insts issued each cycle
system.cpu.iq.issued_per_cycle::4                   8      0.10%      1.75% # Number of insts issued each cycle
system.cpu.iq.issued_per_cycle::5                2055     24.58%     26.33% # Number of insts issued each cycle
system.cpu.iq.issued_per_cycle::6                4093     48.97%     75.30% # Number of insts issued each cycle
system.cpu.iq.issued_per_cycle::7                2052     24.55%     99.84% # Number of insts issued each cycle
system.cpu.iq.issued_per_cycle::8                  13      0.16%    100.00% # Number of insts issued each cycle
system.cpu.iq.issued_per_cycle::overflows            0      0.00%    100.00% # Number of insts issued each cycle
system.cpu.iq.issued_per_cycle::min_value            0                       # Number of insts issued each cycle
system.cpu.iq.issued_per_cycle::max_value            8                       # Number of insts issued each cycle
system.cpu.iq.issued_per_cycle::total            8359                       # Number of insts issued each cycle
system.cpu.iq.rate                           5.797440                       # Inst issue rate
system.cpu.iq.vec_alu_accesses                      0                       # Number of vector alu accesses
system.cpu.iq.vec_inst_queue_reads                  0                       # Number of vector instruction queue reads
system.cpu.iq.vec_inst_queue_wakeup_accesses            0                       # Number of vector instruction queue wakeup accesses
system.cpu.iq.vec_inst_queue_writes                 0                       # Number of vector instruction queue writes
system.cpu.memDep0.conflictingLoads                 0                       # Number of conflicting loads.
system.cpu.memDep0.conflictingStores                0                       # Number of conflicting stores.
system.cpu.memDep0.insertedLoads                   16                       # Number of loads inserted to the mem dependence unit.
system.cpu.memDep0.insertedStores                   4                       # Number of stores inserted to the mem dependence unit.
system.cpu.misc_regfile_reads                    4135                       # number of misc regfile reads
system.cpu.numCycles                             8516                       # number of cpu cycles simulated
system.cpu.numWorkItemsCompleted                    0                       # number of work items this cpu completed
system.cpu.numWorkItemsStarted                      0                       # number of work items this cpu started
system.cpu.timesIdled                               4                       # Number of times that the entire CPU went into an idle state and unscheduled itself
system.cpu.workload.numSyscalls                     0                       # Number of system calls
system.l1_to_l2.snoop_filter.hit_multi_requests            0                       # Number of requests hitting in the snoop filter with multiple (>1) holders of the requested data.
system.l1_to_l2.snoop_filter.hit_multi_snoops            0                       # Number of snoops hitting in the snoop filter with multiple (>1) holders of the requested data.
system.l1_to_l2.snoop_filter.hit_single_requests            1                       # Number of requests hitting in the snoop filter with a single holder of the requested data.
system.l1_to_l2.snoop_filter.hit_single_snoops            0                       # Number of snoops hitting in the snoop filter with a single holder of the requested data.
system.l1_to_l2.snoop_filter.tot_requests            8                       # Total number of requests made to the snoop filter.
system.l1_to_l2.snoop_filter.tot_snoops             0                       # Total number of snoops made to the snoop filter.
system.membus.snoop_filter.hit_multi_requests            0                       # Number of requests hitting in the snoop filter with multiple (>1) holders of the requested data.
system.membus.snoop_filter.hit_multi_snoops            0                       # Number of snoops hitting in the snoop filter with multiple (>1) holders of the requested data.
system.membus.snoop_filter.hit_single_requests            0                       # Number of requests hitting in the snoop filter with a single holder of the requested data.
system.membus.snoop_filter.hit_single_snoops            0                       # Number of snoops hitting in the snoop filter with a single holder of the requested data.
system.membus.snoop_filter.tot_requests             8                       # Total number of requests made to the snoop filter.
system.membus.snoop_filter.tot_snoops               0                       # Total number of snoops made to the snoop filter.
system.clk_domain.clock                          1000                       # Clock period in ticks
system.clk_domain.voltage_domain.voltage            1                       # Voltage in Volts
system.cpu.branchPred.lookups                    2056                       # Number of BP lookups
system.cpu.branchPred.condPredicted              2051                       # Number of conditional branches predicted
system.cpu.branchPred.condIncorrect                 4                       # Number of conditional branches incorrect
system.cpu.branchPred.BTBLookups                 2053                       # Number of BTB lookups
system.cpu.branchPred.BTBHits                    2050                       # Number of BTB hits
system.cpu.branchPred.BTBHitPct             99.853872                       # BTB Hit Percentage
system.cpu.branchPred.RASUsed                       2                       # Number of times the RAS was used to get a target.
system.cpu.branchPred.RASIncorrect                  0                       # Number of incorrect RAS predictions.
system.cpu.branchPred.indirectLookups               0                       # Number of indirect predictor lookups.
system.cpu.branchPred.indirectHits                  0                       # Number of indirect target hits.
system.cpu.branchPred.indirectMisses                0                       # Number of indirect misses.
system.cpu.branchPred.indirectMispredicted            0                       # Number of mispredicted indirect branches.
system.cpu.commit.commitSquashedInsts              77                       # The number of squashed insts skipped by commit
system.cpu.commit.commitNonSpecStalls               1                       # The number of times commit has been forced to stall to communicate backwards
system.cpu.commit.branchMispredicts                 4                       # The number of times a branch was mispredicted
system.cpu.commit.numCommittedDist::samples         8345                       # Number of insts commited each cycle
system.cpu.commit.numCommittedDist::mean     5.908328                       # Number of insts commited each cycle
system.cpu.commit.numCommittedDist::stdev     2.536948                       # Number of insts commited each cycle
system.cpu.commit.numCommittedDist::underflows            0      0.00%      0.00% # Number of insts commited each cycle
system.cpu.commit.numCommittedDist::0             120      1.44%      1.44% # Number of insts commited each cycle
system.cpu.commit.numCommittedDist::1              11      0.13%      1.57% # Number of insts commited each cycle
system.cpu.commit.numCommittedDist::2            2042     24.47%     26.04% # Number of insts commited each cycle
system.cpu.commit.numCommittedDist::3               5      0.06%     26.10% # Number of insts commited each cycle
system.cpu.commit.numCommittedDist::4               6      0.07%     26.17% # Number of insts commited each cycle
system.cpu.commit.numCommittedDist::5              10      0.12%     26.29% # Number of insts commited each cycle
system.cpu.commit.numCommittedDist::6            2042     24.47%     50.76% # Number of insts commited each cycle
system.cpu.commit.numCommittedDist::7               3      0.04%     50.80% # Number of insts commited each cycle
system.cpu.commit.numCommittedDist::8            4106     49.20%    100.00% # Number of insts commited each cycle
system.cpu.commit.numCommittedDist::overflows            0      0.00%    100.00% # Number of insts commited each cycle
system.cpu.commit.numCommittedDist::min_value            0                       # Number of insts commited each cycle
system.cpu.commit.numCommittedDist::max_value            8                       # Number of insts commited each cycle
system.cpu.commit.numCommittedDist::total         8345                       # Number of insts commited each cycle
system.cpu.commit.instsCommitted                24662                       # Number of instructions committed
system.cpu.commit.opsCommitted                  49305                       # Number of ops (including micro ops) committed
system.cpu.commit.memRefs                          20                       # Number of memory references committed
system.cpu.commit.loads                            14                       # Number of loads committed
system.cpu.commit.amos                              0                       # Number of atomic instructions committed
system.cpu.commit.membars                           0                       # Number of memory barriers committed
system.cpu.commit.branches                       2053                       # Number of branches committed
system.cpu.commit.vector                            0                       # Number of committed Vector instructions.
system.cpu.commit.floating                      36928                       # Number of committed floating point instructions.
system.cpu.commit.integer                       12397                       # Number of committed integer instructions.
system.cpu.commit.functionCalls                     1                       # Number of function calls committed.
system.cpu.commit.committedInstType_0::No_OpClass            2      0.00%      0.00% # Class of committed instruction
system.cpu.commit.committedInstType_0::IntAlu        24664     50.02%     50.03% # Class of committed instruction
system.cpu.commit.committedInstType_0::IntMult            1      0.00%     50.03% # Class of committed instruction
system.cpu.commit.committedInstType_0::IntDiv            0      0.00%     50.03% # Class of committed instruction
system.cpu.commit.committedInstType_0::FloatAdd            2      0.00%     50.03% # Class of committed instruction
system.cpu.commit.committedInstType_0::FloatCmp            0      0.00%     50.03% # Class of committed instruction
system.cpu.commit.committedInstType_0::FloatCvt            0      0.00%     50.03% # Class of committed instruction
system.cpu.commit.committedInstType_0::FloatMult            0      0.00%     50.03% # Class of committed instruction
system.cpu.commit.committedInstType_0::FloatMultAcc            0      0.00%     50.03% # Class of committed instruction
system.cpu.commit.committedInstType_0::FloatDiv            0      0.00%     50.03% # Class of committed instruction
system.cpu.commit.committedInstType_0::FloatMisc            0      0.00%     50.03% # Class of committed instruction
system.cpu.commit.committedInstType_0::FloatSqrt            0      0.00%     50.03% # Class of committed instruction
system.cpu.commit.committedInstType_0::SimdAdd        24578     49.85%     99.88% # Class of committed instruction
system.cpu.commit.committedInstType_0::SimdAddAcc            0      0.00%     99.88% # Class of committed instruction
system.cpu.commit.committedInstType_0::SimdAlu            2      0.00%     99.89% # Class of committed instruction
system.cpu.commit.committedInstType_0::SimdCmp            0      0.00%     99.89% # Class of committed instruction
system.cpu.commit.committedInstType_0::SimdCvt            0      0.00%     99.89% # Class of committed instruction
system.cpu.commit.committedInstType_0::SimdMisc           36      0.07%     99.96% # Class of committed instruction
system.cpu.commit.committedInstType_0::SimdMult            0      0.00%     99.96% # Class of committed instruction
system.cpu.commit.committedInstType_0::SimdMultAcc            0      0.00%     99.96% # Class of committed instruction
system.cpu.commit.committedInstType_0::SimdShift            0      0.00%     99.96% # Class of committed instruction
system.cpu.commit.committedInstType_0::SimdShiftAcc            0      0.00%     99.96% # Class of committed instruction
system.cpu.commit.committedInstType_0::SimdDiv            0      0.00%     99.96% # Class of committed instruction
system.cpu.commit.committedInstType_0::SimdSqrt            0      0.00%     99.96% # Class of committed instruction
system.cpu.commit.committedInstType_0::SimdFloatAdd            0      0.00%     99.96% # Class of committed instruction
system.cpu.commit.committedInstType_0::SimdFloatAlu            0      0.00%     99.96% # Class of committed instruction
system.cpu.commit.committedInstType_0::SimdFloatCmp            0      0.00%     99.96% # Class of committed instruction
system.cpu.commit.committedInstType_0::SimdFloatCvt            0      0.00%     99.96% # Class of committed instruction
system.cpu.commit.committedInstType_0::SimdFloatDiv            0      0.00%     99.96% # Class of committed instruction
system.cpu.commit.committedInstType_0::SimdFloatMisc            0      0.00%     99.96% # Class of committed instruction
system.cpu.commit.committedInstType_0::SimdFloatMult            0      0.00%     99.96% # Class of committed instruction
system.cpu.commit.committedInstType_0::SimdFloatMultAcc            0      0.00%     99.96% # Class of committed instruction
system.cpu.commit.committedInstType_0::SimdFloatSqrt            0      0.00%     99.96% # Class of committed instruction
system.cpu.commit.committedInstType_0::SimdReduceAdd            0      0.00%     99.96% # Class of committed instruction
system.cpu.commit.committedInstType_0::SimdReduceAlu            0      0.00%     99.96% # Class of committed instruction
system.cpu.commit.committedInstType_0::SimdReduceCmp            0      0.00%     99.96% # Class of committed instruction
system.cpu.commit.committedInstType_0::SimdFloatReduceAdd            0      0.00%     99.96% # Class of committed instruction
system.cpu.commit.committedInstType_0::SimdFloatReduceCmp            0      0.00%     99.96% # Class of committed instruction
system.cpu.commit.committedInstType_0::SimdAes            0      0.00%     99.96% # Class of committed instruction
system.cpu.commit.committedInstType_0::SimdAesMix            0      0.00%     99.96% # Class of committed instruction
system.cpu.commit.committedInstType_0::SimdSha1Hash            0      0.00%     99.96% # Class of committed instruction
system.cpu.commit.committedInstType_0::SimdSha1Hash2            0      0.00%     99.96% # Class of committed instruction
system.cpu.commit.committedInstType_0::SimdSha256Hash            0      0.00%     99.96% # Class of committed instruction
system.cpu.commit.committedInstType_0::SimdSha256Hash2            0      0.00%     99.96% # Class of committed instruction
system.cpu.commit.committedInstType_0::SimdShaSigma2            0      0.00%     99.96% # Class of committed instruction
system.cpu.commit.committedInstType_0::SimdShaSigma3            0      0.00%     99.96% # Class of committed instruction
system.cpu.commit.committedInstType_0::SimdPredAlu            0      0.00%     99.96% # Class of committed instruction
system.cpu.commit.committedInstType_0::MemRead            6      0.01%     99.97% # Class of committed instruction
system.cpu.commit.committedInstType_0::MemWrite            6      0.01%     99.98% # Class of committed instruction
system.cpu.commit.committedInstType_0::FloatMemRead            8      0.02%    100.00% # Class of committed instruction
system.cpu.commit.committedInstType_0::FloatMemWrite            0      0.00%    100.00% # Class of committed instruction
system.cpu.commit.committedInstType_0::IprAccess            0      0.00%    100.00% # Class of committed instruction
system.cpu.commit.committedInstType_0::InstPrefetch            0      0.00%    100.00% # Class of committed instruction
system.cpu.commit.committedInstType_0::total        49305                       # Class of committed instruction
system.cpu.commit.commitEligibleSamples          4106                       # number cycles where commit BW limit reached
system.cpu.decode.idleCycles                      124                       # Number of cycles decode is idle
system.cpu.decode.blockedCycles                     9                       # Number of cycles decode is blocked
system.cpu.decode.runCycles                      8213                       # Number of cycles decode is running
system.cpu.decode.unblockCycles                     8                       # Number of cycles decode is unblocking
system.cpu.decode.squashCycles                      5                       # Number of cycles decode is squashing
system.cpu.decode.branchResolved                 2049                       # Number of times decode resolved a  branch
system.cpu.decode.decodedInsts                  49390                       # Number of instructions handled by decode
system.cpu.dtb.rdAccesses                          16                       # TLB accesses on read requests
system.cpu.dtb.wrAccesses                           7                       # TLB accesses on write requests
system.cpu.dtb.rdMisses                             1                       # TLB misses on read requests
system.cpu.dtb.wrMisses                             0                       # TLB misses on write requests
system.cpu.dtb.walker.power_state.pwrStateResidencyTicks::UNDEFINED     40281000                       # Cumulative time (in ticks) in various power states
system.cpu.fetch.icacheStallCycles                125                       # Number of cycles fetch is stalled on an Icache miss
system.cpu.fetch.insts                          24717                       # Number of instructions fetch has processed
system.cpu.fetch.branches                        2056                       # Number of branches that fetch encountered
system.cpu.fetch.predictedBranches               2052                       # Number of branches that fetch has predicted taken
system.cpu.fetch.cycles                          8229                       # Number of cycles fetch has run and was not squashing or blocked
system.cpu.fetch.squashCycles                      10                       # Number of cycles fetch has spent squashing
system.cpu.fetch.cacheLines                      4112                       # Number of cache lines fetched
system.cpu.fetch.icacheSquashes                     3                       # Number of outstanding Icache misses that were squashed
system.cpu.fetch.nisnDist::samples               8359                       # Number of instructions fetched each cycle (Total)
system.cpu.fetch.nisnDist::mean              5.909559                       # Number of instructions fetched each cycle (Total)
system.cpu.fetch.nisnDist::stdev             2.541628                       # Number of instructions fetched each cycle (Total)
system.cpu.fetch.nisnDist::underflows               0      0.00%      0.00% # Number of instructions fetched each cycle (Total)
system.cpu.fetch.nisnDist::0                      130      1.56%      1.56% # Number of instructions fetched each cycle (Total)
system.cpu.fetch.nisnDist::1                        2      0.02%      1.58% # Number of instructions fetched each cycle (Total)
system.cpu.fetch.nisnDist::2                     2052     24.55%     26.13% # Number of instructions fetched each cycle (Total)
system.cpu.fetch.nisnDist::3                        0      0.00%     26.13% # Number of instructions fetched each cycle (Total)
system.cpu.fetch.nisnDist::4                        1      0.01%     26.14% # Number of instructions fetched each cycle (Total)
system.cpu.fetch.nisnDist::5                        2      0.02%     26.16% # Number of instructions fetched each cycle (Total)
system.cpu.fetch.nisnDist::6                     2049     24.51%     50.68% # Number of instructions fetched each cycle (Total)
system.cpu.fetch.nisnDist::7                        0      0.00%     50.68% # Number of instructions fetched each cycle (Total)
system.cpu.fetch.nisnDist::8                     4123     49.32%    100.00% # Number of instructions fetched each cycle (Total)
system.cpu.fetch.nisnDist::overflows                0      0.00%    100.00% # Number of instructions fetched each cycle (Total)
system.cpu.fetch.nisnDist::min_value                0                       # Number of instructions fetched each cycle (Total)
system.cpu.fetch.nisnDist::max_value                8                       # Number of instructions fetched each cycle (Total)
system.cpu.fetch.nisnDist::total                 8359                       # Number of instructions fetched each cycle (Total)
system.cpu.fetch.branchRate                  0.241428                       # Number of branch fetches per cycle
system.cpu.fetch.rate                        2.902419                       # Number of inst fetches per cycle
system.cpu.interrupts.clk_domain.clock          16000                       # Clock period in ticks
system.cpu.itb.rdAccesses                           0                       # TLB accesses on read requests
system.cpu.itb.wrAccesses                        4112                       # TLB accesses on write requests
system.cpu.itb.rdMisses                             0                       # TLB misses on read requests
system.cpu.itb.wrMisses                             0                       # TLB misses on write requests
system.cpu.itb.walker.power_state.pwrStateResidencyTicks::UNDEFINED     40281000                       # Cumulative time (in ticks) in various power states
system.cpu.l1d.demand_hits::.cpu.data              14                       # number of demand (read+write) hits
system.cpu.l1d.demand_hits::total                  14                       # number of demand (read+write) hits
system.cpu.l1d.overall_hits::.cpu.data             14                       # number of overall hits
system.cpu.l1d.overall_hits::total                 14                       # number of overall hits
system.cpu.l1d.demand_misses::.cpu.data             8                       # number of demand (read+write) misses
system.cpu.l1d.demand_misses::total                 8                       # number of demand (read+write) misses
system.cpu.l1d.overall_misses::.cpu.data            8                       # number of overall misses
system.cpu.l1d.overall_misses::total                8                       # number of overall misses
system.cpu.l1d.demand_miss_latency::.cpu.data       586000                       # number of demand (read+write) miss cycles
system.cpu.l1d.demand_miss_latency::total       586000                       # number of demand (read+write) miss cycles
system.cpu.l1d.overall_miss_latency::.cpu.data       586000                       # number of overall miss cycles
system.cpu.l1d.overall_miss_latency::total       586000                       # number of overall miss cycles
system.cpu.l1d.demand_accesses::.cpu.data           22                       # number of demand (read+write) accesses
system.cpu.l1d.demand_accesses::total              22                       # number of demand (read+write) accesses
system.cpu.l1d.overall_accesses::.cpu.data           22                       # number of overall (read+write) accesses
system.cpu.l1d.overall_accesses::total             22                       # number of overall (read+write) accesses
system.cpu.l1d.demand_miss_rate::.cpu.data     0.363636                       # miss rate for demand accesses
system.cpu.l1d.demand_miss_rate::total       0.363636                       # miss rate for demand accesses
system.cpu.l1d.overall_miss_rate::.cpu.data     0.363636                       # miss rate for overall accesses
system.cpu.l1d.overall_miss_rate::total      0.363636                       # miss rate for overall accesses
system.cpu.l1d.demand_avg_miss_latency::.cpu.data        73250                       # average overall miss latency
system.cpu.l1d.demand_avg_miss_latency::total        73250                       # average overall miss latency
system.cpu.l1d.overall_avg_miss_latency::.cpu.data        73250                       # average overall miss latency
system.cpu.l1d.overall_avg_miss_latency::total        73250                       # average overall miss latency
system.cpu.l1d.blocked_cycles::no_mshrs             0                       # number of cycles access was blocked
system.cpu.l1d.blocked_cycles::no_targets            0                       # number of cycles access was blocked
system.cpu.l1d.blocked::no_mshrs                    0                       # number of cycles access was blocked
system.cpu.l1d.blocked::no_targets                  0                       # number of cycles access was blocked
system.cpu.l1d.avg_blocked_cycles::no_mshrs          nan                       # average number of cycles each access was blocked
system.cpu.l1d.avg_blocked_cycles::no_targets          nan                       # average number of cycles each access was blocked
system.cpu.l1d.demand_mshr_hits::.cpu.data            6                       # number of demand (read+write) MSHR hits
system.cpu.l1d.demand_mshr_hits::total              6                       # number of demand (read+write) MSHR hits
system.cpu.l1d.overall_mshr_hits::.cpu.data            6                       # number of overall MSHR hits
system.cpu.l1d.overall_mshr_hits::total             6                       # number of overall MSHR hits
system.cpu.l1d.demand_mshr_misses::.cpu.data            2                       # number of demand (read+write) MSHR misses
system.cpu.l1d.demand_mshr_misses::total            2                       # number of demand (read+write) MSHR misses
system.cpu.l1d.overall_mshr_misses::.cpu.data            2                       # number of overall MSHR misses
system.cpu.l1d.overall_mshr_misses::total            2                       # number of overall MSHR misses
system.cpu.l1d.demand_mshr_miss_latency::.cpu.data       138000                       # number of demand (read+write) MSHR miss cycles
system.cpu.l1d.demand_mshr_miss_latency::total       138000                       # number of demand (read+write) MSHR miss cycles
system.cpu.l1d.overall_mshr_miss_latency::.cpu.data       138000                       # number of overall MSHR miss cycles
system.cpu.l1d.overall_mshr_miss_latency::total       138000                       # number of overall MSHR miss cycles
system.cpu.l1d.demand_mshr_miss_rate::.cpu.data     0.090909                       # mshr miss rate for demand accesses
system.cpu.l1d.demand_mshr_miss_rate::total     0.090909                       # mshr miss rate for demand accesses
system.cpu.l1d.overall_mshr_miss_rate::.cpu.data     0.090909                       # mshr miss rate for overall accesses
system.cpu.l1d.overall_mshr_miss_rate::total     0.090909                       # mshr miss rate for overall accesses
system.cpu.l1d.demand_avg_mshr_miss_latency::.cpu.data        69000                       # average overall mshr miss latency
system.cpu.l1d.demand_avg_mshr_miss_latency::total        69000                       # average overall mshr miss latency
system.cpu.l1d.overall_avg_mshr_miss_latency::.cpu.data        69000                       # average overall mshr miss latency
system.cpu.l1d.overall_avg_mshr_miss_latency::total        69000                       # average overall mshr miss latency
system.cpu.l1d.replacements                         0                       # number of replacements
system.cpu.l1d.ReadReq_hits::.cpu.data              8                       # number of ReadReq hits
system.cpu.l1d.ReadReq_hits::total                  8                       # number of ReadReq hits
system.cpu.l1d.ReadReq_misses::.cpu.data            8                       # number of ReadReq misses
system.cpu.l1d.ReadReq_misses::total                8                       # number of ReadReq misses
system.cpu.l1d.ReadReq_miss_latency::.cpu.data       586000                       # number of ReadReq miss cycles
system.cpu.l1d.ReadReq_miss_latency::total       586000                       # number of ReadReq miss cycles
system.cpu.l1d.ReadReq_accesses::.cpu.data           16                       # number of ReadReq accesses(hits+misses)
system.cpu.l1d.ReadReq_accesses::total             16                       # number of ReadReq accesses(hits+misses)
system.cpu.l1d.ReadReq_miss_rate::.cpu.data     0.500000                       # miss rate for ReadReq accesses
system.cpu.l1d.ReadReq_miss_rate::total      0.500000                       # miss rate for ReadReq accesses
system.cpu.l1d.ReadReq_avg_miss_latency::.cpu.data        73250                       # average ReadReq miss latency
system.cpu.l1d.ReadReq_avg_miss_latency::total        73250                       # average ReadReq miss latency
system.cpu.l1d.ReadReq_mshr_hits::.cpu.data            6                       # number of ReadReq MSHR hits
system.cpu.l1d.ReadReq_mshr_hits::total             6                       # number of ReadReq MSHR hits
system.cpu.l1d.ReadReq_mshr_misses::.cpu.data            2                       # number of ReadReq MSHR misses
system.cpu.l1d.ReadReq_mshr_misses::total            2                       # number of ReadReq MSHR misses
system.cpu.l1d.ReadReq_mshr_miss_latency::.cpu.data       138000                       # number of ReadReq MSHR miss cycles
system.cpu.l1d.ReadReq_mshr_miss_latency::total       138000                       # number of ReadReq MSHR miss cycles
system.cpu.l1d.ReadReq_mshr_miss_rate::.cpu.data     0.125000                       # mshr miss rate for ReadReq accesses
system.cpu.l1d.ReadReq_mshr_miss_rate::total     0.125000                       # mshr miss rate for ReadReq accesses
system.cpu.l1d.ReadReq_avg_mshr_miss_latency::.cpu.data        69000                       # average ReadReq mshr miss latency
system.cpu.l1d.ReadReq_avg_mshr_miss_latency::total        69000                       # average ReadReq mshr miss latency
system.cpu.l1d.WriteReq_hits::.cpu.data             6                       # number of WriteReq hits
system.cpu.l1d.WriteReq_hits::total                 6                       # number of WriteReq hits
system.cpu.l1d.WriteReq_accesses::.cpu.data            6                       # number of WriteReq accesses(hits+misses)
system.cpu.l1d.WriteReq_accesses::total             6                       # number of WriteReq accesses(hits+misses)
system.cpu.l1d.power_state.pwrStateResidencyTicks::UNDEFINED     40281000                       # Cumulative time (in ticks) in various power states
system.cpu.l1d.tags.tagsinuse              220.975575                       # Cycle average of tags in use
system.cpu.l1d.tags.total_refs                      0                       # Total number of references to valid blocks.
system.cpu.l1d.tags.sampled_refs                    0                       # Sample count of references to valid blocks.
system.cpu.l1d.tags.avg_refs                      nan                       # Average number of references to valid blocks.
system.cpu.l1d.tags.warmup_cycle                    0                       # Cycle when the warmup percentage was hit.
system.cpu.l1d.tags.occ_blocks::.cpu.data   220.975575                       # Average occupied blocks per requestor
system.cpu.l1d.tags.occ_percent::.cpu.data     0.431593                       # Average percentage of cache occupancy
system.cpu.l1d.tags.occ_percent::total       0.431593                       # Average percentage of cache occupancy
system.cpu.l1d.tags.occ_task_id_blocks::1024          221                       # Occupied blocks per task id
system.cpu.l1d.tags.age_task_id_blocks_1024::0            8                       # Occupied blocks per task id
system.cpu.l1d.tags.age_task_id_blocks_1024::1          213                       # Occupied blocks per task id
system.cpu.l1d.tags.occ_task_id_percent::1024     0.431641                       # Percentage of cache occupancy per task id
system.cpu.l1d.tags.tag_accesses                  178                       # Number of tag accesses
system.cpu.l1d.tags.data_accesses                 178                       # Number of data accesses
system.cpu.l1d.tags.power_state.pwrStateResidencyTicks::UNDEFINED     40281000                       # Cumulative time (in ticks) in various power states
system.cpu.l1i.demand_hits::.cpu.inst            4104                       # number of demand (read+write) hits
system.cpu.l1i.demand_hits::total                4104                       # number of demand (read+write) hits
system.cpu.l1i.overall_hits::.cpu.inst           4104                       # number of overall hits
system.cpu.l1i.overall_hits::total               4104                       # number of overall hits
system.cpu.l1i.demand_misses::.cpu.inst             8                       # number of demand (read+write) misses
system.cpu.l1i.demand_misses::total                 8                       # number of demand (read+write) misses
system.cpu.l1i.overall_misses::.cpu.inst            8                       # number of overall misses
system.cpu.l1i.overall_misses::total                8                       # number of overall misses
system.cpu.l1i.demand_miss_latency::.cpu.inst       409000                       # number of demand (read+write) miss cycles
system.cpu.l1i.demand_miss_latency::total       409000                       # number of demand (read+write) miss cycles
system.cpu.l1i.overall_miss_latency::.cpu.inst       409000                       # number of overall miss cycles
system.cpu.l1i.overall_miss_latency::total       409000                       # number of overall miss cycles
system.cpu.l1i.demand_accesses::.cpu.inst         4112                       # number of demand (read+write) accesses
system.cpu.l1i.demand_accesses::total            4112                       # number of demand (read+write) accesses
system.cpu.l1i.overall_accesses::.cpu.inst         4112                       # number of overall (read+write) accesses
system.cpu.l1i.overall_accesses::total           4112                       # number of overall (read+write) accesses
system.cpu.l1i.demand_miss_rate::.cpu.inst     0.001946                       # miss rate for demand accesses
system.cpu.l1i.demand_miss_rate::total       0.001946                       # miss rate for demand accesses
system.cpu.l1i.overall_miss_rate::.cpu.inst     0.001946                       # miss rate for overall accesses
system.cpu.l1i.overall_miss_rate::total      0.001946                       # miss rate for overall accesses
system.cpu.l1i.demand_avg_miss_latency::.cpu.inst        51125                       # average overall miss latency
system.cpu.l1i.demand_avg_miss_latency::total        51125                       # average overall miss latency
system.cpu.l1i.overall_avg_miss_latency::.cpu.inst        51125                       # average overall miss latency
system.cpu.l1i.overall_avg_miss_latency::total        51125                       # average overall miss latency
system.cpu.l1i.blocked_cycles::no_mshrs             0                       # number of cycles access was blocked
system.cpu.l1i.blocked_cycles::no_targets            0                       # number of cycles access was blocked
system.cpu.l1i.blocked::no_mshrs                    0                       # number of cycles access was blocked
system.cpu.l1i.blocked::no_targets                  0                       # number of cycles access was blocked
system.cpu.l1i.avg_blocked_cycles::no_mshrs          nan                       # average number of cycles each access was blocked
system.cpu.l1i.avg_blocked_cycles::no_targets          nan                       # average number of cycles each access was blocked
system.cpu.l1i.demand_mshr_hits::.cpu.inst            3                       # number of demand (read+write) MSHR hits
system.cpu.l1i.demand_mshr_hits::total              3                       # number of demand (read+write) MSHR hits
system.cpu.l1i.overall_mshr_hits::.cpu.inst            3                       # number of overall MSHR hits
system.cpu.l1i.overall_mshr_hits::total             3                       # number of overall MSHR hits
system.cpu.l1i.demand_mshr_misses::.cpu.inst            5                       # number of demand (read+write) MSHR misses
system.cpu.l1i.demand_mshr_misses::total            5                       # number of demand (read+write) MSHR misses
system.cpu.l1i.overall_mshr_misses::.cpu.inst            5                       # number of overall MSHR misses
system.cpu.l1i.overall_mshr_misses::total            5                       # number of overall MSHR misses
system.cpu.l1i.demand_mshr_miss_latency::.cpu.inst       324000                       # number of demand (read+write) MSHR miss cycles
system.cpu.l1i.demand_mshr_miss_latency::total       324000                       # number of demand (read+write) MSHR miss cycles
system.cpu.l1i.overall_mshr_miss_latency::.cpu.inst       324000                       # number of overall MSHR miss cycles
system.cpu.l1i.overall_mshr_miss_latency::total       324000                       # number of overall MSHR miss cycles
system.cpu.l1i.demand_mshr_miss_rate::.cpu.inst     0.001216                       # mshr miss rate for demand accesses
system.cpu.l1i.demand_mshr_miss_rate::total     0.001216                       # mshr miss rate for demand accesses
system.cpu.l1i.overall_mshr_miss_rate::.cpu.inst     0.001216                       # mshr miss rate for overall accesses
system.cpu.l1i.overall_mshr_miss_rate::total     0.001216                       # mshr miss rate for overall accesses
system.cpu.l1i.demand_avg_mshr_miss_latency::.cpu.inst        64800                       # average overall mshr miss latency
system.cpu.l1i.demand_avg_mshr_miss_latency::total        64800                       # average overall mshr miss latency
system.cpu.l1i.overall_avg_mshr_miss_latency::.cpu.inst        64800                       # average overall mshr miss latency
system.cpu.l1i.overall_avg_mshr_miss_latency::total        64800                       # average overall mshr miss latency
system.cpu.l1i.replacements                         1                       # number of replacements
system.cpu.l1i.ReadReq_hits::.cpu.inst           4104                       # number of ReadReq hits
system.cpu.l1i.ReadReq_hits::total               4104                       # number of ReadReq hits
system.cpu.l1i.ReadReq_misses::.cpu.inst            8                       # number of ReadReq misses
system.cpu.l1i.ReadReq_misses::total                8                       # number of ReadReq misses
system.cpu.l1i.ReadReq_miss_latency::.cpu.inst       409000                       # number of ReadReq miss cycles
system.cpu.l1i.ReadReq_miss_latency::total       409000                       # number of ReadReq miss cycles
system.cpu.l1i.ReadReq_accesses::.cpu.inst         4112                       # number of ReadReq accesses(hits+misses)
system.cpu.l1i.ReadReq_accesses::total           4112                       # number of ReadReq accesses(hits+misses)
system.cpu.l1i.ReadReq_miss_rate::.cpu.inst     0.001946                       # miss rate for ReadReq accesses
system.cpu.l1i.ReadReq_miss_rate::total      0.001946                       # miss rate for ReadReq accesses
system.cpu.l1i.ReadReq_avg_miss_latency::.cpu.inst        51125                       # average ReadReq miss latency
system.cpu.l1i.ReadReq_avg_miss_latency::total        51125                       # average ReadReq miss latency
system.cpu.l1i.ReadReq_mshr_hits::.cpu.inst            3                       # number of ReadReq MSHR hits
system.cpu.l1i.ReadReq_mshr_hits::total             3                       # number of ReadReq MSHR hits
system.cpu.l1i.ReadReq_mshr_misses::.cpu.inst            5                       # number of ReadReq MSHR misses
system.cpu.l1i.ReadReq_mshr_misses::total            5                       # number of ReadReq MSHR misses
system.cpu.l1i.ReadReq_mshr_miss_latency::.cpu.inst       324000                       # number of ReadReq MSHR miss cycles
system.cpu.l1i.ReadReq_mshr_miss_latency::total       324000                       # number of ReadReq MSHR miss cycles
system.cpu.l1i.ReadReq_mshr_miss_rate::.cpu.inst     0.001216                       # mshr miss rate for ReadReq accesses
system.cpu.l1i.ReadReq_mshr_miss_rate::total     0.001216                       # mshr miss rate for ReadReq accesses
system.cpu.l1i.ReadReq_avg_mshr_miss_latency::.cpu.inst        64800                       # average ReadReq mshr miss latency
system.cpu.l1i.ReadReq_avg_mshr_miss_latency::total        64800                       # average ReadReq mshr miss latency
system.cpu.l1i.power_state.pwrStateResidencyTicks::UNDEFINED     40281000                       # Cumulative time (in ticks) in various power states
system.cpu.l1i.tags.tagsinuse              412.975810                       # Cycle average of tags in use
system.cpu.l1i.tags.total_refs                      1                       # Total number of references to valid blocks.
system.cpu.l1i.tags.sampled_refs                    1                       # Sample count of references to valid blocks.
system.cpu.l1i.tags.avg_refs                        1                       # Average number of references to valid blocks.
system.cpu.l1i.tags.warmup_cycle                    0                       # Cycle when the warmup percentage was hit.
system.cpu.l1i.tags.occ_blocks::.cpu.inst   412.975810                       # Average occupied blocks per requestor
system.cpu.l1i.tags.occ_percent::.cpu.inst     0.806593                       # Average percentage of cache occupancy
system.cpu.l1i.tags.occ_percent::total       0.806593                       # Average percentage of cache occupancy
system.cpu.l1i.tags.occ_task_id_blocks::1024          415                       # Occupied blocks per task id
system.cpu.l1i.tags.age_task_id_blocks_1024::0           24                       # Occupied blocks per task id
system.cpu.l1i.tags.age_task_id_blocks_1024::1          391                       # Occupied blocks per task id
system.cpu.l1i.tags.occ_task_id_percent::1024     0.810547                       # Percentage of cache occupancy per task id
system.cpu.l1i.tags.tag_accesses                32901                       # Number of tag accesses
system.cpu.l1i.tags.data_accesses               32901                       # Number of data accesses
system.cpu.l1i.tags.power_state.pwrStateResidencyTicks::UNDEFINED     40281000                       # Cumulative time (in ticks) in various power states
system.cpu.lsq0.forwLoads                           0                       # Number of loads that had data forwarded from stores
system.cpu.lsq0.squashedLoads                       1                       # Number of loads squashed
system.cpu.lsq0.ignoredResponses                    0                       # Number of memory responses ignored because the instruction is squashed
system.cpu.lsq0.memOrderViolation                   1                       # Number of memory ordering violations
system.cpu.lsq0.squashedStores                      1                       # Number of stores squashed
system.cpu.lsq0.rescheduledLoads                    0                       # Number of loads that were rescheduled
system.cpu.lsq0.blockedByCache                      0                       # Number of times an access to memory failed due to the cache being blocked
system.cpu.power_state.pwrStateResidencyTicks::ON     40281000                       # Cumulative time (in ticks) in various power states
system.cpu.rename.squashCycles                      5                       # Number of cycles rename is squashing
system.cpu.rename.idleCycles                      125                       # Number of cycles rename is idle
system.cpu.rename.blockCycles                       9                       # Number of cycles rename is blocking
system.cpu.rename.serializeStallCycles              0                       # count of cycles rename stalledfor serializing inst
system.cpu.rename.runCycles                      8219                       # Number of cycles rename is running
system.cpu.rename.unblockCycles                     1                       # Number of cycles rename is unblocking
system.cpu.rename.renamedInsts                  49376                       # Number of instructions processed by rename
system.cpu.rename.renamedOperands               55580                       # Number of destination operands rename has renamed
system.cpu.rename.lookups                      125399                       # Number of register rename lookups that rename has made
system.cpu.rename.intLookups                    12498                       # Number of integer rename lookups
system.cpu.rename.fpLookups                     98518                       # Number of floating rename lookups
system.cpu.rename.committedMaps                 55485                       # Number of HB maps that are committed
system.cpu.rename.undoneMaps                      135                       # Number of HB maps that are undone due to squashing
system.cpu.rename.serializing                       0                       # count of serializing insts renamed
system.cpu.rename.tempSerializing                   0                       # count of temporary serializing insts renamed
system.cpu.rename.skidInsts                         8                       # count of insts added to the skid buffer
system.cpu.rob.reads                            53621                       # The number of ROB reads
system.cpu.rob.writes                           98766                       # The number of ROB writes
system.cpu.thread_0.numInsts                    24662                       # Number of Instructions committed
system.cpu.thread_0.numOps                      49305                       # Number of Ops committed
system.cpu.thread_0.numMemRefs                      0                       # Number of Memory References
system.l1_to_l2.trans_dist::ReadResp                7                       # Transaction distribution
system.l1_to_l2.trans_dist::CleanEvict              1                       # Transaction distribution
system.l1_to_l2.trans_dist::ReadSharedReq            7                       # Transaction distribution
system.l1_to_l2.pkt_count_system.cpu.l1d.mem_side_port::system.l2cache.cpu_side_port            4                       # Packet count per connected requestor and responder (bytes)
system.l1_to_l2.pkt_count_system.cpu.l1i.mem_side_port::system.l2cache.cpu_side_port           11                       # Packet count per connected requestor and responder (bytes)
system.l1_to_l2.pkt_count::total                   15                       # Packet count per connected requestor and responder (bytes)
system.l1_to_l2.pkt_size_system.cpu.l1d.mem_side_port::system.l2cache.cpu_side_port          128                       # Cumulative packet size per connected requestor and responder (bytes)
system.l1_to_l2.pkt_size_system.cpu.l1i.mem_side_port::system.l2cache.cpu_side_port          320                       # Cumulative packet size per connected requestor and responder (bytes)
system.l1_to_l2.pkt_size::total                   448                       # Cumulative packet size per connected requestor and responder (bytes)
system.l1_to_l2.snoops                              0                       # Total snoops (count)
system.l1_to_l2.snoopTraffic                        0                       # Total snoop traffic (bytes)
system.l1_to_l2.snoop_fanout::samples               7                       # Request fanout histogram
system.l1_to_l2.snoop_fanout::mean                  0                       # Request fanout histogram
system.l1_to_l2.snoop_fanout::stdev                 0                       # Request fanout histogram
system.l1_to_l2.snoop_fanout::underflows            0      0.00%      0.00% # Request fanout histogram
system.l1_to_l2.snoop_fanout::0                     7    100.00%    100.00% # Request fanout histogram
system.l1_to_l2.snoop_fanout::1                     0      0.00%    100.00% # Request fanout histogram
system.l1_to_l2.snoop_fanout::2                     0      0.00%    100.00% # Request fanout histogram
system.l1_to_l2.snoop_fanout::overflows             0      0.00%    100.00% # Request fanout histogram
system.l1_to_l2.snoop_fanout::min_value             0                       # Request fanout histogram
system.l1_to_l2.snoop_fanout::max_value             0                       # Request fanout histogram
system.l1_to_l2.snoop_fanout::total                 7                       # Request fanout histogram
system.l1_to_l2.power_state.pwrStateResidencyTicks::UNDEFINED     40281000                       # Cumulative time (in ticks) in various power states
system.l1_to_l2.reqLayer0.occupancy              8000                       # Layer occupancy (ticks)
system.l1_to_l2.reqLayer0.utilization             0.1                       # Layer utilization (%)
system.l1_to_l2.respLayer0.occupancy             4000                       # Layer occupancy (ticks)
system.l1_to_l2.respLayer0.utilization            0.0                       # Layer utilization (%)
system.l1_to_l2.respLayer1.occupancy            10000                       # Layer occupancy (ticks)
system.l1_to_l2.respLayer1.utilization            0.1                       # Layer utilization (%)
system.l2cache.demand_misses::.cpu.inst             5                       # number of demand (read+write) misses
system.l2cache.demand_misses::.cpu.data             2                       # number of demand (read+write) misses
system.l2cache.demand_misses::total                 7                       # number of demand (read+write) misses
system.l2cache.overall_misses::.cpu.inst            5                       # number of overall misses
system.l2cache.overall_misses::.cpu.data            2                       # number of overall misses
system.l2cache.overall_misses::total                7                       # number of overall misses
system.l2cache.demand_miss_latency::.cpu.inst       314000                       # number of demand (read+write) miss cycles
system.l2cache.demand_miss_latency::.cpu.data       134000                       # number of demand (read+write) miss cycles
system.l2cache.demand_miss_latency::total       448000                       # number of demand (read+write) miss cycles
system.l2cache.overall_miss_latency::.cpu.inst       314000                       # number of overall miss cycles
system.l2cache.overall_miss_latency::.cpu.data       134000                       # number of overall miss cycles
system.l2cache.overall_miss_latency::total       448000                       # number of overall miss cycles
system.l2cache.demand_accesses::.cpu.inst            5                       # number of demand (read+write) accesses
system.l2cache.demand_accesses::.cpu.data            2                       # number of demand (read+write) accesses
system.l2cache.demand_accesses::total               7                       # number of demand (read+write) accesses
system.l2cache.overall_accesses::.cpu.inst            5                       # number of overall (read+write) accesses
system.l2cache.overall_accesses::.cpu.data            2                       # number of overall (read+write) accesses
system.l2cache.overall_accesses::total              7                       # number of overall (read+write) accesses
system.l2cache.demand_miss_rate::.cpu.inst            1                       # miss rate for demand accesses
system.l2cache.demand_miss_rate::.cpu.data            1                       # miss rate for demand accesses
system.l2cache.demand_miss_rate::total              1                       # miss rate for demand accesses
system.l2cache.overall_miss_rate::.cpu.inst            1                       # miss rate for overall accesses
system.l2cache.overall_miss_rate::.cpu.data            1                       # miss rate for overall accesses
system.l2cache.overall_miss_rate::total             1                       # miss rate for overall accesses
system.l2cache.demand_avg_miss_latency::.cpu.inst        62800                       # average overall miss latency
system.l2cache.demand_avg_miss_latency::.cpu.data        67000                       # average overall miss latency
system.l2cache.demand_avg_miss_latency::total        64000                       # average overall miss latency
system.l2cache.overall_avg_miss_latency::.cpu.inst        62800                       # average overall miss latency
system.l2cache.overall_avg_miss_latency::.cpu.data        67000                       # average overall miss latency
system.l2cache.overall_avg_miss_latency::total        64000                       # average overall miss latency
system.l2cache.blocked_cycles::no_mshrs             0                       # number of cycles access was blocked
system.l2cache.blocked_cycles::no_targets            0                       # number of cycles access was blocked
system.l2cache.blocked::no_mshrs                    0                       # number of cycles access was blocked
system.l2cache.blocked::no_targets                  0                       # number of cycles access was blocked
system.l2cache.avg_blocked_cycles::no_mshrs          nan                       # average number of cycles each access was blocked
system.l2cache.avg_blocked_cycles::no_targets          nan                       # average number of cycles each access was blocked
system.l2cache.demand_mshr_misses::.cpu.inst            5                       # number of demand (read+write) MSHR misses
system.l2cache.demand_mshr_misses::.cpu.data            2                       # number of demand (read+write) MSHR misses
system.l2cache.demand_mshr_misses::total            7                       # number of demand (read+write) MSHR misses
system.l2cache.overall_mshr_misses::.cpu.inst            5                       # number of overall MSHR misses
system.l2cache.overall_mshr_misses::.cpu.data            2                       # number of overall MSHR misses
system.l2cache.overall_mshr_misses::total            7                       # number of overall MSHR misses
system.l2cache.demand_mshr_miss_latency::.cpu.inst       309000                       # number of demand (read+write) MSHR miss cycles
system.l2cache.demand_mshr_miss_latency::.cpu.data       132000                       # number of demand (read+write) MSHR miss cycles
system.l2cache.demand_mshr_miss_latency::total       441000                       # number of demand (read+write) MSHR miss cycles
system.l2cache.overall_mshr_miss_latency::.cpu.inst       309000                       # number of overall MSHR miss cycles
system.l2cache.overall_mshr_miss_latency::.cpu.data       132000                       # number of overall MSHR miss cycles
system.l2cache.overall_mshr_miss_latency::total       441000                       # number of overall MSHR miss cycles
system.l2cache.demand_mshr_miss_rate::.cpu.inst            1                       # mshr miss rate for demand accesses
system.l2cache.demand_mshr_miss_rate::.cpu.data            1                       # mshr miss rate for demand accesses
system.l2cache.demand_mshr_miss_rate::total            1                       # mshr miss rate for demand accesses
system.l2cache.overall_mshr_miss_rate::.cpu.inst            1                       # mshr miss rate for overall accesses
system.l2cache.overall_mshr_miss_rate::.cpu.data            1                       # mshr miss rate for overall accesses
system.l2cache.overall_mshr_miss_rate::total            1                       # mshr miss rate for overall accesses
system.l2cache.demand_avg_mshr_miss_latency::.cpu.inst        61800                       # average overall mshr miss latency
system.l2cache.demand_avg_mshr_miss_latency::.cpu.data        66000                       # average overall mshr miss latency
system.l2cache.demand_avg_mshr_miss_latency::total        63000                       # average overall mshr miss latency
system.l2cache.overall_avg_mshr_miss_latency::.cpu.inst        61800                       # average overall mshr miss latency
system.l2cache.overall_avg_mshr_miss_latency::.cpu.data        66000                       # average overall mshr miss latency
system.l2cache.overall_avg_mshr_miss_latency::total        63000                       # average overall mshr miss latency
system.l2cache.replacements                         0                       # number of replacements
system.l2cache.ReadSharedReq_misses::.cpu.inst            5                       # number of ReadSharedReq misses
system.l2cache.ReadSharedReq_misses::.cpu.data            2                       # number of ReadSharedReq misses
system.l2cache.ReadSharedReq_misses::total            7                       # number of ReadSharedReq misses
system.l2cache.ReadSharedReq_miss_latency::.cpu.inst       314000                       # number of ReadSharedReq miss cycles
system.l2cache.ReadSharedReq_miss_latency::.cpu.data       134000                       # number of ReadSharedReq miss cycles
system.l2cache.ReadSharedReq_miss_latency::total       448000                       # number of ReadSharedReq miss cycles
system.l2cache.ReadSharedReq_accesses::.cpu.inst            5                       # number of ReadSharedReq accesses(hits+misses)
system.l2cache.ReadSharedReq_accesses::.cpu.data            2                       # number of ReadSharedReq accesses(hits+misses)
system.l2cache.ReadSharedReq_accesses::total            7                       # number of ReadSharedReq accesses(hits+misses)
system.l2cache.ReadSharedReq_miss_rate::.cpu.inst            1                       # miss rate for ReadSharedReq accesses
system.l2cache.ReadSharedReq_miss_rate::.cpu.data            1                       # miss rate for ReadSharedReq accesses
system.l2cache.ReadSharedReq_miss_rate::total            1                       # miss rate for ReadSharedReq accesses
system.l2cache.ReadSharedReq_avg_miss_latency::.cpu.inst        62800                       # average ReadSharedReq miss latency
system.l2cache.ReadSharedReq_avg_miss_latency::.cpu.data        67000                       # average ReadSharedReq miss latency
system.l2cache.ReadSharedReq_avg_miss_latency::total        64000                       # average ReadSharedReq miss latency
system.l2cache.ReadSharedReq_mshr_misses::.cpu.inst            5                       # number of ReadSharedReq MSHR misses
system.l2cache.ReadSharedReq_mshr_misses::.cpu.data            2                       # number of ReadSharedReq MSHR misses
system.l2cache.ReadSharedReq_mshr_misses::total            7                       # number of ReadSharedReq MSHR misses
[...]
system.mem_ctrl.requestorReadTotalLat::.cpu.data        49476                       # Per-requestor read total memory access latency
system.mem_ctrl.requestorReadAvgLat::.cpu.inst     22212.00                       # Per-requestor read average memory access latency
system.mem_ctrl.requestorReadAvgLat::.cpu.data     24738.00                       # Per-requestor read average memory access latency
system.mem_ctrl.dram.bytes_read::.cpu.inst          320                       # Number of bytes read from this memory
system.mem_ctrl.dram.bytes_read::.cpu.data          128                       # Number of bytes read from this memory
system.mem_ctrl.dram.bytes_read::total            448                       # Number of bytes read from this memory
system.mem_ctrl.dram.bytes_inst_read::.cpu.inst          320                       # Number of instructions bytes read from this memory
system.mem_ctrl.dram.bytes_inst_read::total          320                       # Number of instructions bytes read from this memory
system.mem_ctrl.dram.num_reads::.cpu.inst            5                       # Number of read requests responded to by this memory
system.mem_ctrl.dram.num_reads::.cpu.data            2                       # Number of read requests responded to by this memory
system.mem_ctrl.dram.num_reads::total               7                       # Number of read requests responded to by this memory
system.mem_ctrl.dram.bw_read::.cpu.inst      37576327                       # Total read bandwidth from this memory (bytes/s)
system.mem_ctrl.dram.bw_read::.cpu.data      15030531                       # Total read bandwidth from this memory (bytes/s)
system.mem_ctrl.dram.bw_read::total          52606858                       # Total read bandwidth from this memory (bytes/s)
system.mem_ctrl.dram.bw_inst_read::.cpu.inst     37576327                       # Instruction read bandwidth from this memory (bytes/s)
system.mem_ctrl.dram.bw_inst_read::total     37576327                       # Instruction read bandwidth from this memory (bytes/s)
system.mem_ctrl.dram.bw_total::.cpu.inst     37576327                       # Total bandwidth to/from this memory (bytes/s)
system.mem_ctrl.dram.bw_total::.cpu.data     15030531                       # Total bandwidth to/from this memory (bytes/s)
system.mem_ctrl.dram.bw_total::total         52606858                       # Total bandwidth to/from this memory (bytes/s)
system.mem_ctrl.dram.readBursts                     8                       # Number of DRAM read bursts
system.mem_ctrl.dram.writeBursts                    0                       # Number of DRAM write bursts
system.mem_ctrl.dram.perBankRdBursts::0             5                       # Per bank write bursts
system.mem_ctrl.dram.perBankRdBursts::1             0                       # Per bank write bursts
system.mem_ctrl.dram.perBankRdBursts::2             0                       # Per bank write bursts
system.mem_ctrl.dram.perBankRdBursts::3             0                       # Per bank write bursts
system.mem_ctrl.dram.perBankRdBursts::4             0                       # Per bank write bursts
system.mem_ctrl.dram.perBankRdBursts::5             0                       # Per bank write bursts
system.mem_ctrl.dram.perBankRdBursts::6             0                       # Per bank write bursts
system.mem_ctrl.dram.perBankRdBursts::7             1                       # Per bank write bursts
system.mem_ctrl.dram.perBankRdBursts::8             0                       # Per bank write bursts
system.mem_ctrl.dram.perBankRdBursts::9             0                       # Per bank write bursts
system.mem_ctrl.dram.perBankRdBursts::10            2                       # Per bank write bursts
system.mem_ctrl.dram.perBankRdBursts::11            0                       # Per bank write bursts
system.mem_ctrl.dram.perBankRdBursts::12            0                       # Per bank write bursts
system.mem_ctrl.dram.perBankRdBursts::13            0                       # Per bank write bursts
system.mem_ctrl.dram.perBankRdBursts::14            0                       # Per bank write bursts
system.mem_ctrl.dram.perBankRdBursts::15            0                       # Per bank write bursts
system.mem_ctrl.dram.perBankRdBursts::16            0                       # Per bank write bursts
system.mem_ctrl.dram.perBankRdBursts::17            0                       # Per bank write bursts
system.mem_ctrl.dram.perBankRdBursts::18            0                       # Per bank write bursts
system.mem_ctrl.dram.perBankRdBursts::19            0                       # Per bank write bursts
system.mem_ctrl.dram.perBankRdBursts::20            0                       # Per bank write bursts
system.mem_ctrl.dram.perBankRdBursts::21            0                       # Per bank write bursts
system.mem_ctrl.dram.perBankRdBursts::22            0                       # Per bank write bursts
system.mem_ctrl.dram.perBankRdBursts::23            0                       # Per bank write bursts
system.mem_ctrl.dram.perBankRdBursts::24            0                       # Per bank write bursts
system.mem_ctrl.dram.perBankRdBursts::25            0                       # Per bank write bursts
system.mem_ctrl.dram.perBankRdBursts::26            0                       # Per bank write bursts
system.mem_ctrl.dram.perBankRdBursts::27            0                       # Per bank write bursts
system.mem_ctrl.dram.perBankRdBursts::28            0                       # Per bank write bursts
system.mem_ctrl.dram.perBankRdBursts::29            0                       # Per bank write bursts
system.mem_ctrl.dram.perBankRdBursts::30            0                       # Per bank write bursts
system.mem_ctrl.dram.perBankRdBursts::31            0                       # Per bank write bursts
system.mem_ctrl.dram.perBankWrBursts::0             0                       # Per bank write bursts
system.mem_ctrl.dram.perBankWrBursts::1             0                       # Per bank write bursts
system.mem_ctrl.dram.perBankWrBursts::2             0                       # Per bank write bursts
system.mem_ctrl.dram.perBankWrBursts::3             0                       # Per bank write bursts
system.mem_ctrl.dram.perBankWrBursts::4             0                       # Per bank write bursts
system.mem_ctrl.dram.perBankWrBursts::5             0                       # Per bank write bursts
system.mem_ctrl.dram.perBankWrBursts::6             0                       # Per bank write bursts
system.mem_ctrl.dram.perBankWrBursts::7             0                       # Per bank write bursts
system.mem_ctrl.dram.perBankWrBursts::8             0                       # Per bank write bursts
system.mem_ctrl.dram.perBankWrBursts::9             0                       # Per bank write bursts
system.mem_ctrl.dram.perBankWrBursts::10            0                       # Per bank write bursts
system.mem_ctrl.dram.perBankWrBursts::11            0                       # Per bank write bursts
system.mem_ctrl.dram.perBankWrBursts::12            0                       # Per bank write bursts
system.mem_ctrl.dram.perBankWrBursts::13            0                       # Per bank write bursts
system.mem_ctrl.dram.perBankWrBursts::14            0                       # Per bank write bursts
system.mem_ctrl.dram.perBankWrBursts::15            0                       # Per bank write bursts
system.mem_ctrl.dram.perBankWrBursts::16            0                       # Per bank write bursts
system.mem_ctrl.dram.perBankWrBursts::17            0                       # Per bank write bursts
system.mem_ctrl.dram.perBankWrBursts::18            0                       # Per bank write bursts
system.mem_ctrl.dram.perBankWrBursts::19            0                       # Per bank write bursts
system.mem_ctrl.dram.perBankWrBursts::20            0                       # Per bank write bursts
system.mem_ctrl.dram.perBankWrBursts::21            0                       # Per bank write bursts
system.mem_ctrl.dram.perBankWrBursts::22            0                       # Per bank write bursts
system.mem_ctrl.dram.perBankWrBursts::23            0                       # Per bank write bursts
system.mem_ctrl.dram.perBankWrBursts::24            0                       # Per bank write bursts
system.mem_ctrl.dram.perBankWrBursts::25            0                       # Per bank write bursts
system.mem_ctrl.dram.perBankWrBursts::26            0                       # Per bank write bursts
system.mem_ctrl.dram.perBankWrBursts::27            0                       # Per bank write bursts
system.mem_ctrl.dram.perBankWrBursts::28            0                       # Per bank write bursts
system.mem_ctrl.dram.perBankWrBursts::29            0                       # Per bank write bursts
system.mem_ctrl.dram.perBankWrBursts::30            0                       # Per bank write bursts
system.mem_ctrl.dram.perBankWrBursts::31            0                       # Per bank write bursts
system.mem_ctrl.dram.totQLat                    42812                       # Total ticks spent queuing
system.mem_ctrl.dram.totBusLat                  26656                       # Total ticks spent in databus transfers
system.mem_ctrl.dram.totMemAccLat              182748                       # Total ticks spent from burst creation until serviced by the DRAM
system.mem_ctrl.dram.avgQLat                  5351.50                       # Average queueing delay per DRAM burst
system.mem_ctrl.dram.avgBusLat                3332.00                       # Average bus latency per DRAM burst
system.mem_ctrl.dram.avgMemAccLat            22843.50                       # Average memory access latency per DRAM burst
system.mem_ctrl.dram.readRowHits                    5                       # Number of row buffer hits during reads
system.mem_ctrl.dram.writeRowHits                   0                       # Number of row buffer hits during writes
system.mem_ctrl.dram.readRowHitRate             62.50                       # Row buffer hit rate for reads
system.mem_ctrl.dram.writeRowHitRate              nan                       # Row buffer hit rate for writes
system.mem_ctrl.dram.bytesPerActivate::samples            6                       # Bytes accessed per row activation
system.mem_ctrl.dram.bytesPerActivate::mean          128                       # Bytes accessed per row activation
system.mem_ctrl.dram.bytesPerActivate::gmean   114.035036                       # Bytes accessed per row activation
system.mem_ctrl.dram.bytesPerActivate::stdev    70.108487                       # Bytes accessed per row activation
system.mem_ctrl.dram.bytesPerActivate::64-95            2     33.33%     33.33% # Bytes accessed per row activation
system.mem_ctrl.dram.bytesPerActivate::128-159            3     50.00%     83.33% # Bytes accessed per row activation
system.mem_ctrl.dram.bytesPerActivate::256-287            1     16.67%    100.00% # Bytes accessed per row activation
system.mem_ctrl.dram.bytesPerActivate::total            6                       # Bytes accessed per row activation
system.mem_ctrl.dram.bytesRead                    512                       # Total number of bytes read from DRAM
system.mem_ctrl.dram.bytesWritten                   0                       # Total number of bytes written to DRAM
system.mem_ctrl.dram.avgRdBW                60.122123                       # Average DRAM read bandwidth in MiBytes/s
system.mem_ctrl.dram.avgWrBW                        0                       # Average DRAM write bandwidth in MiBytes/s
system.mem_ctrl.dram.peakBW                  19207.00                       # Theoretical peak bandwidth in MiByte/s
system.mem_ctrl.dram.busUtil                     0.31                       # Data bus utilization in percentage
system.mem_ctrl.dram.busUtilRead                 0.31                       # Data bus utilization in percentage for reads
system.mem_ctrl.dram.busUtilWrite                0.00                       # Data bus utilization in percentage for writes
system.mem_ctrl.dram.pageHitRate                62.50                       # Row buffer hit rate, read and write combined
system.mem_ctrl.dram.power_state.pwrStateResidencyTicks::UNDEFINED     40281000                       # Cumulative time (in ticks) in various power states
system.mem_ctrl.dram.rank0.actEnergy     28068.768000                       # Energy for activate commands per rank (pJ)
system.mem_ctrl.dram.rank0.preEnergy     29024.385600                       # Energy for precharge commands per rank (pJ)
system.mem_ctrl.dram.rank0.readEnergy    63094.752000                       # Energy for read commands per rank (pJ)
system.mem_ctrl.dram.rank0.writeEnergy              0                       # Energy for write commands per rank (pJ)
system.mem_ctrl.dram.rank0.refreshEnergy 1385377.627200                       # Energy for refresh commands per rank (pJ)
system.mem_ctrl.dram.rank0.actBackEnergy 6721894.166400                       # Energy for active background per rank (pJ)
system.mem_ctrl.dram.rank0.preBackEnergy 562271.001600                       # Energy for precharge background per rank (pJ)
system.mem_ctrl.dram.rank0.actPowerDownEnergy            0                       # Energy for active power-down per rank (pJ)
system.mem_ctrl.dram.rank0.prePowerDownEnergy            0                       # Energy for precharge power-down per rank (pJ)
system.mem_ctrl.dram.rank0.selfRefreshEnergy            0                       # Energy for self refresh per rank (pJ)
system.mem_ctrl.dram.rank0.totalEnergy   8789730.700800                       # Total energy per rank (pJ)
system.mem_ctrl.dram.rank0.averagePower   1032.143107                       # Core power per rank (mW)
system.mem_ctrl.dram.rank0.totalIdleTime            0                       # Total Idle time Per DRAM Rank
system.mem_ctrl.dram.rank0.pwrStateTime::IDLE       833640                       # Time in different power states
system.mem_ctrl.dram.rank0.pwrStateTime::REF       350000                       # Time in different power states
system.mem_ctrl.dram.rank0.pwrStateTime::SREF            0                       # Time in different power states
system.mem_ctrl.dram.rank0.pwrStateTime::PRE_PDN            0                       # Time in different power states
system.mem_ctrl.dram.rank0.pwrStateTime::ACT      7589840                       # Time in different power states
system.mem_ctrl.dram.rank0.pwrStateTime::ACT_PDN            0                       # Time in different power states
system.mem_ctrl.dram.rank1.actEnergy                0                       # Energy for activate commands per rank (pJ)
system.mem_ctrl.dram.rank1.preEnergy                0                       # Energy for precharge commands per rank (pJ)
system.mem_ctrl.dram.rank1.readEnergy               0                       # Energy for read commands per rank (pJ)
system.mem_ctrl.dram.rank1.writeEnergy              0                       # Energy for write commands per rank (pJ)
system.mem_ctrl.dram.rank1.refreshEnergy 1385377.627200                       # Energy for refresh commands per rank (pJ)
system.mem_ctrl.dram.rank1.actBackEnergy 285917.587200                       # Energy for active background per rank (pJ)
system.mem_ctrl.dram.rank1.preBackEnergy 5339399.385600                       # Energy for precharge background per rank (pJ)
system.mem_ctrl.dram.rank1.actPowerDownEnergy            0                       # Energy for active power-down per rank (pJ)
system.mem_ctrl.dram.rank1.prePowerDownEnergy            0                       # Energy for precharge power-down per rank (pJ)
system.mem_ctrl.dram.rank1.selfRefreshEnergy            0                       # Energy for self refresh per rank (pJ)
system.mem_ctrl.dram.rank1.totalEnergy   7010694.600000                       # Total energy per rank (pJ)
system.mem_ctrl.dram.rank1.averagePower    823.237976                       # Core power per rank (mW)
system.mem_ctrl.dram.rank1.totalIdleTime            0                       # Total Idle time Per DRAM Rank
system.mem_ctrl.dram.rank1.pwrStateTime::IDLE      8423480                       # Time in different power states
system.mem_ctrl.dram.rank1.pwrStateTime::REF       350000                       # Time in different power states
system.mem_ctrl.dram.rank1.pwrStateTime::SREF            0                       # Time in different power states
system.mem_ctrl.dram.rank1.pwrStateTime::PRE_PDN            0                       # Time in different power states
system.mem_ctrl.dram.rank1.pwrStateTime::ACT            0                       # Time in different power states
system.mem_ctrl.dram.rank1.pwrStateTime::ACT_PDN            0                       # Time in different power states
system.mem_ctrl.power_state.pwrStateResidencyTicks::UNDEFINED     40281000                       # Cumulative time (in ticks) in various power states
system.membus.trans_dist::ReadResp                  7                       # Transaction distribution
system.membus.trans_dist::ReadSharedReq             8                       # Transaction distribution
system.membus.pkt_count_system.l2cache.mem_side_port::system.mem_ctrl.port           15                       # Packet count per connected requestor and responder (bytes)
system.membus.pkt_count_system.l2cache.mem_side_port::total           15                       # Packet count per connected requestor and responder (bytes)
system.membus.pkt_count::total                     15                       # Packet count per connected requestor and responder (bytes)
system.membus.pkt_size_system.l2cache.mem_side_port::system.mem_ctrl.port          448                       # Cumulative packet size per connected requestor and responder (bytes)
system.membus.pkt_size_system.l2cache.mem_side_port::total          448                       # Cumulative packet size per connected requestor and responder (bytes)
system.membus.pkt_size::total                     448                       # Cumulative packet size per connected requestor and responder (bytes)
system.membus.snoops                                0                       # Total snoops (count)
system.membus.snoopTraffic                          0                       # Total snoop traffic (bytes)
system.membus.snoop_fanout::samples                 8                       # Request fanout histogram
system.membus.snoop_fanout::mean                    0                       # Request fanout histogram
system.membus.snoop_fanout::stdev                   0                       # Request fanout histogram
system.membus.snoop_fanout::underflows              0      0.00%      0.00% # Request fanout histogram
system.membus.snoop_fanout::0                       8    100.00%    100.00% # Request fanout histogram
system.membus.snoop_fanout::1                       0      0.00%    100.00% # Request fanout histogram
system.membus.snoop_fanout::overflows               0      0.00%    100.00% # Request fanout histogram
system.membus.snoop_fanout::min_value               0                       # Request fanout histogram
system.membus.snoop_fanout::max_value               0                       # Request fanout histogram
system.membus.snoop_fanout::total                   8                       # Request fanout histogram
system.membus.power_state.pwrStateResidencyTicks::UNDEFINED     40281000                       # Cumulative time (in ticks) in various power states
system.membus.reqLayer0.occupancy                8000                       # Layer occupancy (ticks)
system.membus.reqLayer0.utilization               0.1                       # Layer utilization (%)
system.membus.respLayer0.occupancy              16904                       # Layer occupancy (ticks)
system.membus.respLayer0.utilization              0.2                       # Layer utilization (%)

---------- End Simulation Statistics   ----------
