
---------- Begin Simulation Statistics ----------
final_tick                                12247924000                       # Number of ticks from beginning of simulation (restored from checkpoints and never reset)
host_inst_rate                                  83965                       # Simulator instruction rate (inst/s)
host_mem_usage                                 724092                       # Number of bytes of host memory used
host_op_rate                                   131146                       # Simulator op (including micro ops) rate (op/s)
host_seconds                                   357.29                       # Real time elapsed on the host
host_tick_rate                               34279700                       # Simulator tick rate (ticks/s)
sim_freq                                 1000000000000                       # Frequency of simulated ticks
sim_insts                                    30000000                       # Number of instructions simulated
sim_ops                                      46857538                       # Number of ops (including micro ops) simulated
sim_seconds                                  0.012248                       # Number of seconds simulated
sim_ticks                                 12247924000                       # Number of ticks simulated
system.cpu.cc_regfile_reads                  26455539                       # number of cc regfile reads
system.cpu.cc_regfile_writes                 25628886                       # number of cc regfile writes
system.cpu.committedInsts                    30000000                       # Number of Instructions Simulated
system.cpu.committedOps                      46857538                       # Number of Ops (including micro ops) Simulated
system.cpu.cpi                               0.816528                       # CPI: Cycles Per Instruction
system.cpu.cpi_total                         0.816528                       # CPI: Total CPI of All Threads
system.cpu.fp_regfile_reads                   2452369                       # number of floating regfile reads
system.cpu.fp_regfile_writes                  1697914                       # number of floating regfile writes
system.cpu.idleCycles                          131413                       # Total number of cycles that the CPU has spent unscheduled due to idling
system.cpu.iew.branchMispredicts               209068                       # Number of branch mispredicts detected at execute
system.cpu.iew.exec_branches                  3723898                       # Number of branches executed
system.cpu.iew.exec_nop                             0                       # number of nop insts executed
system.cpu.iew.exec_rate                     2.156193                       # Inst execution rate
system.cpu.iew.exec_refs                     13731183                       # number of memory reference insts executed
system.cpu.iew.exec_stores                    4302294                       # Number of stores executed
system.cpu.iew.exec_swp                             0                       # number of swp insts executed
system.cpu.iew.iewBlockCycles                 1879071                       # Number of cycles IEW is blocking
system.cpu.iew.iewDispLoadInsts              10300260                       # Number of dispatched load instructions
system.cpu.iew.iewDispNonSpecInsts                940                       # Number of dispatched non-speculative instructions
system.cpu.iew.iewDispSquashedInsts              2413                       # Number of squashed instructions skipped by dispatch
system.cpu.iew.iewDispStoreInsts              4396719                       # Number of dispatched store instructions
system.cpu.iew.iewDispatchedInsts            57078233                       # Number of instructions dispatched to IQ
system.cpu.iew.iewExecLoadInsts               9428889                       # Number of load instructions executed
system.cpu.iew.iewExecSquashedInsts            439577                       # Number of squashed instructions skipped in execute
system.cpu.iew.iewExecutedInsts              52817775                       # Number of executed instructions
system.cpu.iew.iewIQFullEvents                  10332                       # Number of times the IQ has become full, causing a stall
system.cpu.iew.iewIdleCycles                        0                       # Number of cycles IEW is idle
system.cpu.iew.iewLSQFullEvents               2377447                       # Number of times the LSQ has become full, causing a stall
system.cpu.iew.iewSquashCycles                 186800                       # Number of cycles IEW is squashing
system.cpu.iew.iewUnblockCycles               2391663                       # Number of cycles IEW is unblocking
system.cpu.iew.memOrderViolationEvents            684                       # Number of memory order violations
system.cpu.iew.predictedNotTakenIncorrect       106828                       # Number of branches that were predicted not taken incorrectly
system.cpu.iew.predictedTakenIncorrect         102240                       # Number of branches that were predicted taken incorrectly
system.cpu.iew.wb_consumers                  69776887                       # num instructions consuming a value
system.cpu.iew.wb_count                      52461464                       # cumulative count of insts written-back
system.cpu.iew.wb_fanout                     0.561385                       # average fanout of values written-back
system.cpu.iew.wb_producers                  39171722                       # num instructions producing a value
system.cpu.iew.wb_rate                       2.141647                       # insts written-back per cycle
system.cpu.iew.wb_sent                       52611519                       # cumulative count of insts sent to commit
system.cpu.int_regfile_reads                 88283767                       # number of integer regfile reads
system.cpu.int_regfile_writes                42320294                       # number of integer regfile writes
system.cpu.ipc                               1.224697                       # IPC: Instructions Per Cycle
system.cpu.ipc_total                         1.224697                       # IPC: Total IPC of All Threads
system.cpu.iq.FU_type_0::No_OpClass            674305      1.27%      1.27% # Type of FU issued
system.cpu.iq.FU_type_0::IntAlu              37159654     69.77%     71.04% # Type of FU issued
system.cpu.iq.FU_type_0::IntMult                   95      0.00%     71.04% # Type of FU issued
system.cpu.iq.FU_type_0::IntDiv                 43415      0.08%     71.12% # Type of FU issued
system.cpu.iq.FU_type_0::FloatAdd              479112      0.90%     72.02% # Type of FU issued
system.cpu.iq.FU_type_0::FloatCmp                   0      0.00%     72.02% # Type of FU issued
system.cpu.iq.FU_type_0::FloatCvt                1387      0.00%     72.02% # Type of FU issued
system.cpu.iq.FU_type_0::FloatMult                  0      0.00%     72.02% # Type of FU issued
system.cpu.iq.FU_type_0::FloatMultAcc               0      0.00%     72.02% # Type of FU issued
system.cpu.iq.FU_type_0::FloatDiv                   0      0.00%     72.02% # Type of FU issued
system.cpu.iq.FU_type_0::FloatMisc                  0      0.00%     72.02% # Type of FU issued
system.cpu.iq.FU_type_0::FloatSqrt                  0      0.00%     72.02% # Type of FU issued
system.cpu.iq.FU_type_0::SimdAdd                 9106      0.02%     72.04% # Type of FU issued
system.cpu.iq.FU_type_0::SimdAddAcc                 0      0.00%     72.04% # Type of FU issued
system.cpu.iq.FU_type_0::SimdAlu                50860      0.10%     72.14% # Type of FU issued
system.cpu.iq.FU_type_0::SimdCmp                    6      0.00%     72.14% # Type of FU issued
system.cpu.iq.FU_type_0::SimdCvt                20530      0.04%     72.17% # Type of FU issued
system.cpu.iq.FU_type_0::SimdMisc              949080      1.78%     73.96% # Type of FU issued
system.cpu.iq.FU_type_0::SimdMult                   0      0.00%     73.96% # Type of FU issued
system.cpu.iq.FU_type_0::SimdMultAcc                0      0.00%     73.96% # Type of FU issued
system.cpu.iq.FU_type_0::SimdShift               6781      0.01%     73.97% # Type of FU issued
system.cpu.iq.FU_type_0::SimdShiftAcc               0      0.00%     73.97% # Type of FU issued
system.cpu.iq.FU_type_0::SimdDiv                    0      0.00%     73.97% # Type of FU issued
system.cpu.iq.FU_type_0::SimdSqrt                   0      0.00%     73.97% # Type of FU issued
system.cpu.iq.FU_type_0::SimdFloatAdd               0      0.00%     73.97% # Type of FU issued
system.cpu.iq.FU_type_0::SimdFloatAlu               0      0.00%     73.97% # Type of FU issued
system.cpu.iq.FU_type_0::SimdFloatCmp               0      0.00%     73.97% # Type of FU issued
system.cpu.iq.FU_type_0::SimdFloatCvt           19542      0.04%     74.01% # Type of FU issued
system.cpu.iq.FU_type_0::SimdFloatDiv               0      0.00%     74.01% # Type of FU issued
system.cpu.iq.FU_type_0::SimdFloatMisc              0      0.00%     74.01% # Type of FU issued
system.cpu.iq.FU_type_0::SimdFloatMult           9857      0.02%     74.02% # Type of FU issued
system.cpu.iq.FU_type_0::SimdFloatMultAcc            0      0.00%     74.02% # Type of FU issued
system.cpu.iq.FU_type_0::SimdFloatSqrt              0      0.00%     74.02% # Type of FU issued
system.cpu.iq.FU_type_0::SimdReduceAdd              0      0.00%     74.02% # Type of FU issued
system.cpu.iq.FU_type_0::SimdReduceAlu              0      0.00%     74.02% # Type of FU issued
system.cpu.iq.FU_type_0::SimdReduceCmp              0      0.00%     74.02% # Type of FU issued
system.cpu.iq.FU_type_0::SimdFloatReduceAdd            0      0.00%     74.02% # Type of FU issued
system.cpu.iq.FU_type_0::SimdFloatReduceCmp            0      0.00%     74.02% # Type of FU issued
system.cpu.iq.FU_type_0::SimdAes                    0      0.00%     74.02% # Type of FU issued
system.cpu.iq.FU_type_0::SimdAesMix                 0      0.00%     74.02% # Type of FU issued
system.cpu.iq.FU_type_0::SimdSha1Hash               0      0.00%     74.02% # Type of FU issued
system.cpu.iq.FU_type_0::SimdSha1Hash2              0      0.00%     74.02% # Type of FU issued
system.cpu.iq.FU_type_0::SimdSha256Hash             0      0.00%     74.02% # Type of FU issued
system.cpu.iq.FU_type_0::SimdSha256Hash2            0      0.00%     74.02% # Type of FU issued
system.cpu.iq.FU_type_0::SimdShaSigma2              0      0.00%     74.02% # Type of FU issued
system.cpu.iq.FU_type_0::SimdShaSigma3              0      0.00%     74.02% # Type of FU issued
system.cpu.iq.FU_type_0::SimdPredAlu                0      0.00%     74.02% # Type of FU issued
system.cpu.iq.FU_type_0::MemRead              9450928     17.75%     91.77% # Type of FU issued
system.cpu.iq.FU_type_0::MemWrite             3793121      7.12%     98.89% # Type of FU issued
system.cpu.iq.FU_type_0::FloatMemRead           60043      0.11%     99.01% # Type of FU issued
system.cpu.iq.FU_type_0::FloatMemWrite         529531      0.99%    100.00% # Type of FU issued
system.cpu.iq.FU_type_0::IprAccess                  0      0.00%    100.00% # Type of FU issued
system.cpu.iq.FU_type_0::InstPrefetch               0      0.00%    100.00% # Type of FU issued
system.cpu.iq.FU_type_0::total               53257353                       # Type of FU issued
system.cpu.iq.fp_alu_accesses                 2374111                       # Number of floating point alu accesses
system.cpu.iq.fp_inst_queue_reads             4632038                       # Number of floating instruction queue reads
system.cpu.iq.fp_inst_queue_wakeup_accesses      2225835                       # Number of floating instruction queue wakeup accesses
system.cpu.iq.fp_inst_queue_writes            2465194                       # Number of floating instruction queue writes
system.cpu.iq.fu_busy_cnt                      827908                       # FU busy when requested
system.cpu.iq.fu_busy_rate                   0.015545                       # FU busy rate (busy events/executed inst)
system.cpu.iq.fu_full::No_OpClass                   0      0.00%      0.00% # attempts to use FU when none available
system.cpu.iq.fu_full::IntAlu                  340691     41.15%     41.15% # attempts to use FU when none available
system.cpu.iq.fu_full::IntMult                      0      0.00%     41.15% # attempts to use FU when none available
system.cpu.iq.fu_full::IntDiv                       0      0.00%     41.15% # attempts to use FU when none available
system.cpu.iq.fu_full::FloatAdd                     0      0.00%     41.15% # attempts to use FU when none available
system.cpu.iq.fu_full::FloatCmp                     0      0.00%     41.15% # attempts to use FU when none available
system.cpu.iq.fu_full::FloatCvt                     0      0.00%     41.15% # attempts to use FU when none available
system.cpu.iq.fu_full::FloatMult                    0      0.00%     41.15% # attempts to use FU when none available
system.cpu.iq.fu_full::FloatMultAcc                 0      0.00%     41.15% # attempts to use FU when none available
system.cpu.iq.fu_full::FloatDiv                     0      0.00%     41.15% # attempts to use FU when none available
system.cpu.iq.fu_full::FloatMisc                    0      0.00%     41.15% # attempts to use FU when none available
system.cpu.iq.fu_full::FloatSqrt                    0      0.00%     41.15% # attempts to use FU when none available
system.cpu.iq.fu_full::SimdAdd                      1      0.00%     41.15% # attempts to use FU when none available
system.cpu.iq.fu_full::SimdAddAcc                   0      0.00%     41.15% # attempts to use FU when none available
system.cpu.iq.fu_full::SimdAlu                    190      0.02%     41.17% # attempts to use FU when none available
system.cpu.iq.fu_full::SimdCmp                      0      0.00%     41.17% # attempts to use FU when none available
system.cpu.iq.fu_full::SimdCvt                    999      0.12%     41.29% # attempts to use FU when none available
system.cpu.iq.fu_full::SimdMisc                114857     13.87%     55.17% # attempts to use FU when none available
system.cpu.iq.fu_full::SimdMult                     0      0.00%     55.17% # attempts to use FU when none available
system.cpu.iq.fu_full::SimdMultAcc                  0      0.00%     55.17% # attempts to use FU when none available
system.cpu.iq.fu_full::SimdShift                   36      0.00%     55.17% # attempts to use FU when none available
system.cpu.iq.fu_full::SimdShiftAcc                 0      0.00%     55.17% # attempts to use FU when none available
system.cpu.iq.fu_full::SimdDiv                      0      0.00%     55.17% # attempts to use FU when none available
system.cpu.iq.fu_full::SimdSqrt                     0      0.00%     55.17% # attempts to use FU when none available
system.cpu.iq.fu_full::SimdFloatAdd                 0      0.00%     55.17% # attempts to use FU when none available
system.cpu.iq.fu_full::SimdFloatAlu                 0      0.00%     55.17% # attempts to use FU when none available
system.cpu.iq.fu_full::SimdFloatCmp                 0      0.00%     55.17% # attempts to use FU when none available
system.cpu.iq.fu_full::SimdFloatCvt                 0      0.00%     55.17% # attempts to use FU when none available
system.cpu.iq.fu_full::SimdFloatDiv                 0      0.00%     55.17% # attempts to use FU when none available
system.cpu.iq.fu_full::SimdFloatMisc                0      0.00%     55.17% # attempts to use FU when none available
system.cpu.iq.fu_full::SimdFloatMult                0      0.00%     55.17% # attempts to use FU when none available
system.cpu.iq.fu_full::SimdFloatMultAcc             0      0.00%     55.17% # attempts to use FU when none available
system.cpu.iq.fu_full::SimdFloatSqrt                0      0.00%     55.17% # attempts to use FU when none available
system.cpu.iq.fu_full::SimdReduceAdd                0      0.00%     55.17% # attempts to use FU when none available
system.cpu.iq.fu_full::SimdReduceAlu                0      0.00%     55.17% # attempts to use FU when none available
system.cpu.iq.fu_full::SimdReduceCmp                0      0.00%     55.17% # attempts to use FU when none available
system.cpu.iq.fu_full::SimdFloatReduceAdd            0      0.00%     55.17% # attempts to use FU when none available
system.cpu.iq.fu_full::SimdFloatReduceCmp            0      0.00%     55.17% # attempts to use FU when none available
system.cpu.iq.fu_full::SimdAes                      0      0.00%     55.17% # attempts to use FU when none available
system.cpu.iq.fu_full::SimdAesMix                   0      0.00%     55.17% # attempts to use FU when none available
system.cpu.iq.fu_full::SimdSha1Hash                 0      0.00%     55.17% # attempts to use FU when none available
system.cpu.iq.fu_full::SimdSha1Hash2                0      0.00%     55.17% # attempts to use FU when none available
system.cpu.iq.fu_full::SimdSha256Hash               0      0.00%     55.17% # attempts to use FU when none available
system.cpu.iq.fu_full::SimdSha256Hash2              0      0.00%     55.17% # attempts to use FU when none available
system.cpu.iq.fu_full::SimdShaSigma2                0      0.00%     55.17% # attempts to use FU when none available
system.cpu.iq.fu_full::SimdShaSigma3                0      0.00%     55.17% # attempts to use FU when none available
system.cpu.iq.fu_full::SimdPredAlu                  0      0.00%     55.17% # attempts to use FU when none available
system.cpu.iq.fu_full::MemRead                 361099     43.62%     98.79% # attempts to use FU when none available
system.cpu.iq.fu_full::MemWrite                  8375      1.01%     99.80% # attempts to use FU when none available
system.cpu.iq.fu_full::FloatMemRead               644      0.08%     99.88% # attempts to use FU when none available
system.cpu.iq.fu_full::FloatMemWrite             1016      0.12%    100.00% # attempts to use FU when none available
system.cpu.iq.fu_full::IprAccess                    0      0.00%    100.00% # attempts to use FU when none available
system.cpu.iq.fu_full::InstPrefetch                 0      0.00%    100.00% # attempts to use FU when none available
system.cpu.iq.int_alu_accesses               51036845                       # Number of integer alu accesses
system.cpu.iq.int_inst_queue_reads          127110255                       # Number of integer instruction queue reads
system.cpu.iq.int_inst_queue_wakeup_accesses     50235629                       # Number of integer instruction queue wakeup accesses
system.cpu.iq.int_inst_queue_writes          64834336                       # Number of integer instruction queue writes
system.cpu.iq.iqInstsAdded                   57076835                       # Number of instructions added to the IQ (excludes non-spec)
system.cpu.iq.iqInstsIssued                  53257353                       # Number of instructions issued
system.cpu.iq.iqNonSpecInstsAdded                1398                       # Number of non-speculative instructions added to the IQ
system.cpu.iq.iqSquashedInstsExamined        10220637                       # Number of squashed instructions iterated over during squash; mainly for profiling
system.cpu.iq.iqSquashedInstsIssued             35244                       # Number of squashed instructions issued
system.cpu.iq.iqSquashedNonSpecRemoved            195                       # Number of squashed non-spec instructions that were removed
system.cpu.iq.iqSquashedOperandsExamined     17754631                       # Number of squashed operands that are examined and possibly removed from graph
system.cpu.iq.issued_per_cycle::samples      24364436                       # Number of insts issued each cycle
system.cpu.iq.issued_per_cycle::mean         2.185864                       # Number of insts issued each cycle
system.cpu.iq.issued_per_cycle::stdev        2.229960                       # Number of insts issued each cycle
system.cpu.iq.issued_per_cycle::underflows            0      0.00%      0.00% # Number of insts issued each cycle
system.cpu.iq.issued_per_cycle::0             8447089     34.67%     34.67% # Number of insts issued each cycle
system.cpu.iq.issued_per_cycle::1             3163081     12.98%     47.65% # Number of insts issued each cycle
system.cpu.iq.issued_per_cycle::2             3269502     13.42%     61.07% # Number of insts issued each cycle
system.cpu.iq.issued_per_cycle::3             3171845     13.02%     74.09% # Number of insts issued each cycle
system.cpu.iq.issued_per_cycle::4             1810646      7.43%     81.52% # Number of insts issued each cycle
system.cpu.iq.issued_per_cycle::5             1750935      7.19%     88.71% # Number of insts issued each cycle
system.cpu.iq.issued_per_cycle::6             1738644      7.14%     95.84% # Number of insts issued each cycle
system.cpu.iq.issued_per_cycle::7              490942      2.01%     97.86% # Number of insts issued each cycle
system.cpu.iq.issued_per_cycle::8              521752      2.14%    100.00% # Number of insts issued each cycle
system.cpu.iq.issued_per_cycle::overflows            0      0.00%    100.00% # Number of insts issued each cycle
system.cpu.iq.issued_per_cycle::min_value            0                       # Number of insts issued each cycle
system.cpu.iq.issued_per_cycle::max_value            8                       # Number of insts issued each cycle
system.cpu.iq.issued_per_cycle::total        24364436                       # Number of insts issued each cycle
system.cpu.iq.rate                           2.174138                       # Inst issue rate
system.cpu.iq.vec_alu_accesses                      0                       # Number of vector alu accesses
system.cpu.iq.vec_inst_queue_reads                  0                       # Number of vector instruction queue reads
system.cpu.iq.vec_inst_queue_wakeup_accesses            0                       # Number of vector instruction queue wakeup accesses
system.cpu.iq.vec_inst_queue_writes                 0                       # Number of vector instruction queue writes
system.cpu.memDep0.conflictingLoads            849430                       # Number of conflicting loads.
system.cpu.memDep0.conflictingStores           297032                       # Number of conflicting stores.
system.cpu.memDep0.insertedLoads             10300260                       # Number of loads inserted to the mem dependence unit.
system.cpu.memDep0.insertedStores             4396719                       # Number of stores inserted to the mem dependence unit.
system.cpu.misc_regfile_reads                21661611                       # number of misc regfile reads
system.cpu.misc_regfile_writes                    702                       # number of misc regfile writes
system.cpu.numCycles                         24495849                       # number of cpu cycles simulated
system.cpu.numWorkItemsCompleted                    0                       # number of work items this cpu completed
system.cpu.numWorkItemsStarted                      0                       # number of work items this cpu started
system.cpu.timesIdled                            1498                       # Number of times that the entire CPU went into an idle state and unscheduled itself
system.cpu.workload.numSyscalls                    85                       # Number of system calls
system.membus.snoop_filter.hit_multi_requests            0                       # Number of requests hitting in the snoop filter with multiple (>1) holders of the requested data.
system.membus.snoop_filter.hit_multi_snoops            0                       # Number of snoops hitting in the snoop filter with multiple (>1) holders of the requested data.
system.membus.snoop_filter.hit_single_requests        39083                       # Number of requests hitting in the snoop filter with a single holder of the requested data.
system.membus.snoop_filter.hit_single_snoops            0                       # Number of snoops hitting in the snoop filter with a single holder of the requested data.
system.membus.snoop_filter.tot_requests         86798                       # Total number of requests made to the snoop filter.
system.membus.snoop_filter.tot_snoops               0                       # Total number of snoops made to the snoop filter.
system.tol2bus.snoop_filter.hit_multi_requests           25                       # Number of requests hitting in the snoop filter with multiple (>1) holders of the requested data.
system.tol2bus.snoop_filter.hit_multi_snoops            0                       # Number of snoops hitting in the snoop filter with multiple (>1) holders of the requested data.
system.tol2bus.snoop_filter.hit_single_requests        67786                       # Number of requests hitting in the snoop filter with a single holder of the requested data.
system.tol2bus.snoop_filter.hit_single_snoops          878                       # Number of snoops hitting in the snoop filter with a single holder of the requested data.
system.tol2bus.snoop_filter.tot_requests       136594                       # Total number of requests made to the snoop filter.
system.tol2bus.snoop_filter.tot_snoops            878                       # Total number of snoops made to the snoop filter.
system.clk_domain.clock                           250                       # Clock period in ticks
system.cpu.branchPred.lookups                 5627037                       # Number of BP lookups
system.cpu.branchPred.condPredicted           4049336                       # Number of conditional branches predicted
system.cpu.branchPred.condIncorrect            185730                       # Number of conditional branches incorrect
system.cpu.branchPred.BTBLookups              2860678                       # Number of BTB lookups
system.cpu.branchPred.BTBHits                 2858160                       # Number of BTB hits
system.cpu.branchPred.BTBHitPct             99.911979                       # BTB Hit Percentage
system.cpu.branchPred.RASUsed                  683491                       # Number of times the RAS was used to get a target.
system.cpu.branchPred.RASIncorrect                 17                       # Number of incorrect RAS predictions.
system.cpu.branchPred.indirectLookups           24806                       # Number of indirect predictor lookups.
system.cpu.branchPred.indirectHits              13887                       # Number of indirect target hits.
system.cpu.branchPred.indirectMisses            10919                       # Number of indirect misses.
system.cpu.branchPred.indirectMispredicted         1538                       # Number of mispredicted indirect branches.
system.cpu.commit.commitSquashedInsts        10214247                       # The number of squashed insts skipped by commit
system.cpu.commit.commitNonSpecStalls            1203                       # The number of times commit has been forced to stall to communicate backwards
system.cpu.commit.branchMispredicts            185362                       # The number of times a branch was mispredicted
system.cpu.commit.numCommittedDist::samples     22996106                       # Number of insts commited each cycle
system.cpu.commit.numCommittedDist::mean     2.037629                       # Number of insts commited each cycle
system.cpu.commit.numCommittedDist::stdev     2.452024                       # Number of insts commited each cycle
system.cpu.commit.numCommittedDist::underflows            0      0.00%      0.00% # Number of insts commited each cycle
system.cpu.commit.numCommittedDist::0         8278728     36.00%     36.00% # Number of insts commited each cycle
system.cpu.commit.numCommittedDist::1         4421511     19.23%     55.23% # Number of insts commited each cycle
system.cpu.commit.numCommittedDist::2         3709868     16.13%     71.36% # Number of insts commited each cycle
system.cpu.commit.numCommittedDist::3         2223012      9.67%     81.03% # Number of insts commited each cycle
system.cpu.commit.numCommittedDist::4          448091      1.95%     82.98% # Number of insts commited each cycle
system.cpu.commit.numCommittedDist::5         1235556      5.37%     88.35% # Number of insts commited each cycle
system.cpu.commit.numCommittedDist::6          400244      1.74%     90.09% # Number of insts commited each cycle
system.cpu.commit.numCommittedDist::7          257121      1.12%     91.21% # Number of insts commited each cycle
system.cpu.commit.numCommittedDist::8         2021975      8.79%    100.00% # Number of insts commited each cycle
system.cpu.commit.numCommittedDist::overflows            0      0.00%    100.00% # Number of insts commited each cycle
system.cpu.commit.numCommittedDist::min_value            0                       # Number of insts commited each cycle
system.cpu.commit.numCommittedDist::max_value            8                       # Number of insts commited each cycle
system.cpu.commit.numCommittedDist::total     22996106                       # Number of insts commited each cycle
system.cpu.commit.instsCommitted             30000000                       # Number of instructions committed
system.cpu.commit.opsCommitted               46857538                       # Number of ops (including micro ops) committed
system.cpu.commit.memRefs                    12733905                       # Number of memory references committed
system.cpu.commit.loads                       8633488                       # Number of loads committed
system.cpu.commit.amos                              0                       # Number of atomic instructions committed
system.cpu.commit.membars                         334                       # Number of memory barriers committed
system.cpu.commit.branches                    3306485                       # Number of branches committed
system.cpu.commit.vector                            0                       # Number of committed Vector instructions.
system.cpu.commit.floating                    2153628                       # Number of committed floating point instructions.
system.cpu.commit.integer                    45163321                       # Number of committed integer instructions.
system.cpu.commit.functionCalls                544065                       # Number of function calls committed.
system.cpu.commit.committedInstType_0::No_OpClass       564578      1.20%      1.20% # Class of committed instruction
system.cpu.commit.committedInstType_0::IntAlu     32027619     68.35%     69.56% # Class of committed instruction
system.cpu.commit.committedInstType_0::IntMult           38      0.00%     69.56% # Class of committed instruction
system.cpu.commit.committedInstType_0::IntDiv        40525      0.09%     69.64% # Class of committed instruction
system.cpu.commit.committedInstType_0::FloatAdd       472511      1.01%     70.65% # Class of committed instruction
system.cpu.commit.committedInstType_0::FloatCmp            0      0.00%     70.65% # Class of committed instruction
system.cpu.commit.committedInstType_0::FloatCvt         1248      0.00%     70.65% # Class of committed instruction
system.cpu.commit.committedInstType_0::FloatMult            0      0.00%     70.65% # Class of committed instruction
system.cpu.commit.committedInstType_0::FloatMultAcc            0      0.00%     70.65% # Class of committed instruction
system.cpu.commit.committedInstType_0::FloatDiv            0      0.00%     70.65% # Class of committed instruction
system.cpu.commit.committedInstType_0::FloatMisc            0      0.00%     70.65% # Class of committed instruction
system.cpu.commit.committedInstType_0::FloatSqrt            0      0.00%     70.65% # Class of committed instruction
system.cpu.commit.committedInstType_0::SimdAdd         7936      0.02%     70.67% # Class of committed instruction
system.cpu.commit.committedInstType_0::SimdAddAcc            0      0.00%     70.67% # Class of committed instruction
system.cpu.commit.committedInstType_0::SimdAlu        26513      0.06%     70.73% # Class of committed instruction
system.cpu.commit.committedInstType_0::SimdCmp            6      0.00%     70.73% # Class of committed instruction
system.cpu.commit.committedInstType_0::SimdCvt        16320      0.03%     70.76% # Class of committed instruction
system.cpu.commit.committedInstType_0::SimdMisc       946206      2.02%     72.78% # Class of committed instruction
system.cpu.commit.committedInstType_0::SimdMult            0      0.00%     72.78% # Class of committed instruction
system.cpu.commit.committedInstType_0::SimdMultAcc            0      0.00%     72.78% # Class of committed instruction
system.cpu.commit.committedInstType_0::SimdShift         2037      0.00%     72.79% # Class of committed instruction
system.cpu.commit.committedInstType_0::SimdShiftAcc            0      0.00%     72.79% # Class of committed instruction
system.cpu.commit.committedInstType_0::SimdDiv            0      0.00%     72.79% # Class of committed instruction
system.cpu.commit.committedInstType_0::SimdSqrt            0      0.00%     72.79% # Class of committed instruction
system.cpu.commit.committedInstType_0::SimdFloatAdd            0      0.00%     72.79% # Class of committed instruction
system.cpu.commit.committedInstType_0::SimdFloatAlu            0      0.00%     72.79% # Class of committed instruction
system.cpu.commit.committedInstType_0::SimdFloatCmp            0      0.00%     72.79% # Class of committed instruction
system.cpu.commit.committedInstType_0::SimdFloatCvt        12064      0.03%     72.81% # Class of committed instruction
system.cpu.commit.committedInstType_0::SimdFloatDiv            0      0.00%     72.81% # Class of committed instruction
system.cpu.commit.committedInstType_0::SimdFloatMisc            0      0.00%     72.81% # Class of committed instruction
system.cpu.commit.committedInstType_0::SimdFloatMult         6032      0.01%     72.82% # Class of committed instruction
system.cpu.commit.committedInstType_0::SimdFloatMultAcc            0      0.00%     72.82% # Class of committed instruction
system.cpu.commit.committedInstType_0::SimdFloatSqrt            0      0.00%     72.82% # Class of committed instruction
system.cpu.commit.committedInstType_0::SimdReduceAdd            0      0.00%     72.82% # Class of committed instruction
system.cpu.commit.committedInstType_0::SimdReduceAlu            0      0.00%     72.82% # Class of committed instruction
system.cpu.commit.committedInstType_0::SimdReduceCmp            0      0.00%     72.82% # Class of committed instruction
system.cpu.commit.committedInstType_0::SimdFloatReduceAdd            0      0.00%     72.82% # Class of committed instruction
system.cpu.commit.committedInstType_0::SimdFloatReduceCmp            0      0.00%     72.82% # Class of committed instruction
system.cpu.commit.committedInstType_0::SimdAes            0      0.00%     72.82% # Class of committed instruction
system.cpu.commit.committedInstType_0::SimdAesMix            0      0.00%     72.82% # Class of committed instruction
system.cpu.commit.committedInstType_0::SimdSha1Hash            0      0.00%     72.82% # Class of committed instruction
system.cpu.commit.committedInstType_0::SimdSha1Hash2            0      0.00%     72.82% # Class of committed instruction
system.cpu.commit.committedInstType_0::SimdSha256Hash            0      0.00%     72.82% # Class of committed instruction
system.cpu.commit.committedInstType_0::SimdSha256Hash2            0      0.00%     72.82% # Class of committed instruction
system.cpu.commit.committedInstType_0::SimdShaSigma2            0      0.00%     72.82% # Class of committed instruction
system.cpu.commit.committedInstType_0::SimdShaSigma3            0      0.00%     72.82% # Class of committed instruction
system.cpu.commit.committedInstType_0::SimdPredAlu            0      0.00%     72.82% # Class of committed instruction
system.cpu.commit.committedInstType_0::MemRead      8599865     18.35%     91.18% # Class of committed instruction
system.cpu.commit.committedInstType_0::MemWrite      3590667      7.66%     98.84% # Class of committed instruction
system.cpu.commit.committedInstType_0::FloatMemRead        33623      0.07%     98.91% # Class of committed instruction
system.cpu.commit.committedInstType_0::FloatMemWrite       509750      1.09%    100.00% # Class of committed instruction
system.cpu.commit.committedInstType_0::IprAccess            0      0.00%    100.00% # Class of committed instruction
system.cpu.commit.committedInstType_0::InstPrefetch            0      0.00%    100.00% # Class of committed instruction
system.cpu.commit.committedInstType_0::total     46857538                       # Class of committed instruction
system.cpu.commit.commitEligibleSamples       2021975                       # number cycles where commit BW limit reached
system.cpu.dcache.demand_hits::.cpu.data     10386233                       # number of demand (read+write) hits
system.cpu.dcache.demand_hits::total         10386233                       # number of demand (read+write) hits
system.cpu.dcache.overall_hits::.cpu.data     10386233                       # number of overall hits
system.cpu.dcache.overall_hits::total        10386233                       # number of overall hits
system.cpu.dcache.demand_misses::.cpu.data       117773                       # number of demand (read+write) misses
system.cpu.dcache.demand_misses::total         117773                       # number of demand (read+write) misses
system.cpu.dcache.overall_misses::.cpu.data       117773                       # number of overall misses
system.cpu.dcache.overall_misses::total        117773                       # number of overall misses
system.cpu.dcache.demand_miss_latency::.cpu.data   5935906994                       # number of demand (read+write) miss cycles
system.cpu.dcache.demand_miss_latency::total   5935906994                       # number of demand (read+write) miss cycles
system.cpu.dcache.overall_miss_latency::.cpu.data   5935906994                       # number of overall miss cycles
system.cpu.dcache.overall_miss_latency::total   5935906994                       # number of overall miss cycles
system.cpu.dcache.demand_accesses::.cpu.data     10504006                       # number of demand (read+write) accesses
system.cpu.dcache.demand_accesses::total     10504006                       # number of demand (read+write) accesses
system.cpu.dcache.overall_accesses::.cpu.data     10504006                       # number of overall (read+write) accesses
system.cpu.dcache.overall_accesses::total     10504006                       # number of overall (read+write) accesses
system.cpu.dcache.demand_miss_rate::.cpu.data     0.011212                       # miss rate for demand accesses
system.cpu.dcache.demand_miss_rate::total     0.011212                       # miss rate for demand accesses
system.cpu.dcache.overall_miss_rate::.cpu.data     0.011212                       # miss rate for overall accesses
system.cpu.dcache.overall_miss_rate::total     0.011212                       # miss rate for overall accesses
system.cpu.dcache.demand_avg_miss_latency::.cpu.data 50401.254906                       # average overall miss latency
system.cpu.dcache.demand_avg_miss_latency::total 50401.254906                       # average overall miss latency
system.cpu.dcache.overall_avg_miss_latency::.cpu.data 50401.254906                       # average overall miss latency
system.cpu.dcache.overall_avg_miss_latency::total 50401.254906                       # average overall miss latency
system.cpu.dcache.blocked_cycles::no_mshrs        28207                       # number of cycles access was blocked
system.cpu.dcache.blocked_cycles::no_targets          231                       # number of cycles access was blocked
system.cpu.dcache.blocked::no_mshrs               803                       # number of cycles access was blocked
system.cpu.dcache.blocked::no_targets              31                       # number of cycles access was blocked
system.cpu.dcache.avg_blocked_cycles::no_mshrs    35.127024                       # average number of cycles each access was blocked
system.cpu.dcache.avg_blocked_cycles::no_targets     7.451613                       # average number of cycles each access was blocked
system.cpu.dcache.writebacks::.writebacks        49679                       # number of writebacks
system.cpu.dcache.writebacks::total             49679                       # number of writebacks
system.cpu.dcache.demand_mshr_hits::.cpu.data        51546                       # number of demand (read+write) MSHR hits
system.cpu.dcache.demand_mshr_hits::total        51546                       # number of demand (read+write) MSHR hits
system.cpu.dcache.overall_mshr_hits::.cpu.data        51546                       # number of overall MSHR hits
system.cpu.dcache.overall_mshr_hits::total        51546                       # number of overall MSHR hits
system.cpu.dcache.demand_mshr_misses::.cpu.data        66227                       # number of demand (read+write) MSHR misses
system.cpu.dcache.demand_mshr_misses::total        66227                       # number of demand (read+write) MSHR misses
system.cpu.dcache.overall_mshr_misses::.cpu.data        66227                       # number of overall MSHR misses
system.cpu.dcache.overall_mshr_misses::total        66227                       # number of overall MSHR misses
system.cpu.dcache.demand_mshr_miss_latency::.cpu.data   3600824494                       # number of demand (read+write) MSHR miss cycles
system.cpu.dcache.demand_mshr_miss_latency::total   3600824494                       # number of demand (read+write) MSHR miss cycles
system.cpu.dcache.overall_mshr_miss_latency::.cpu.data   3600824494                       # number of overall MSHR miss cycles
system.cpu.dcache.overall_mshr_miss_latency::total   3600824494                       # number of overall MSHR miss cycles
system.cpu.dcache.demand_mshr_miss_rate::.cpu.data     0.006305                       # mshr miss rate for demand accesses
system.cpu.dcache.demand_mshr_miss_rate::total     0.006305                       # mshr miss rate for demand accesses
system.cpu.dcache.overall_mshr_miss_rate::.cpu.data     0.006305                       # mshr miss rate for overall accesses
system.cpu.dcache.overall_mshr_miss_rate::total     0.006305                       # mshr miss rate for overall accesses
system.cpu.dcache.demand_avg_mshr_miss_latency::.cpu.data 54370.943784                       # average overall mshr miss latency
system.cpu.dcache.demand_avg_mshr_miss_latency::total 54370.943784                       # average overall mshr miss latency
system.cpu.dcache.overall_avg_mshr_miss_latency::.cpu.data 54370.943784                       # average overall mshr miss latency
system.cpu.dcache.overall_avg_mshr_miss_latency::total 54370.943784                       # average overall mshr miss latency
system.cpu.dcache.replacements                  65715                       # number of replacements
system.cpu.dcache.ReadReq_hits::.cpu.data      6323504                       # number of ReadReq hits
system.cpu.dcache.ReadReq_hits::total         6323504                       # number of ReadReq hits
system.cpu.dcache.ReadReq_misses::.cpu.data        80077                       # number of ReadReq misses
system.cpu.dcache.ReadReq_misses::total         80077                       # number of ReadReq misses
system.cpu.dcache.ReadReq_miss_latency::.cpu.data   3224307000                       # number of ReadReq miss cycles
system.cpu.dcache.ReadReq_miss_latency::total   3224307000                       # number of ReadReq miss cycles
system.cpu.dcache.ReadReq_accesses::.cpu.data      6403581                       # number of ReadReq accesses(hits+misses)
system.cpu.dcache.ReadReq_accesses::total      6403581                       # number of ReadReq accesses(hits+misses)
system.cpu.dcache.ReadReq_miss_rate::.cpu.data     0.012505                       # miss rate for ReadReq accesses
system.cpu.dcache.ReadReq_miss_rate::total     0.012505                       # miss rate for ReadReq accesses
system.cpu.dcache.ReadReq_avg_miss_latency::.cpu.data 40265.082358                       # average ReadReq miss latency
system.cpu.dcache.ReadReq_avg_miss_latency::total 40265.082358                       # average ReadReq miss latency
system.cpu.dcache.ReadReq_mshr_hits::.cpu.data        51532                       # number of ReadReq MSHR hits
system.cpu.dcache.ReadReq_mshr_hits::total        51532                       # number of ReadReq MSHR hits
system.cpu.dcache.ReadReq_mshr_misses::.cpu.data        28545                       # number of ReadReq MSHR misses
system.cpu.dcache.ReadReq_mshr_misses::total        28545                       # number of ReadReq MSHR misses
system.cpu.dcache.ReadReq_mshr_miss_latency::.cpu.data    927417500                       # number of ReadReq MSHR miss cycles
system.cpu.dcache.ReadReq_mshr_miss_latency::total    927417500                       # number of ReadReq MSHR miss cycles
system.cpu.dcache.ReadReq_mshr_miss_rate::.cpu.data     0.004458                       # mshr miss rate for ReadReq accesses
system.cpu.dcache.ReadReq_mshr_miss_rate::total     0.004458                       # mshr miss rate for ReadReq accesses
system.cpu.dcache.ReadReq_avg_mshr_miss_latency::.cpu.data 32489.665441                       # average ReadReq mshr miss latency
system.cpu.dcache.ReadReq_avg_mshr_miss_latency::total 32489.665441                       # average ReadReq mshr miss latency
system.cpu.dcache.WriteReq_hits::.cpu.data      4062729                       # number of WriteReq hits
system.cpu.dcache.WriteReq_hits::total        4062729                       # number of WriteReq hits
system.cpu.dcache.WriteReq_misses::.cpu.data        37696                       # number of WriteReq misses
system.cpu.dcache.WriteReq_misses::total        37696                       # number of WriteReq misses
system.cpu.dcache.WriteReq_miss_latency::.cpu.data   2711599994                       # number of WriteReq miss cycles
system.cpu.dcache.WriteReq_miss_latency::total   2711599994                       # number of WriteReq miss cycles
system.cpu.dcache.WriteReq_accesses::.cpu.data      4100425                       # number of WriteReq accesses(hits+misses)
system.cpu.dcache.WriteReq_accesses::total      4100425                       # number of WriteReq accesses(hits+misses)
system.cpu.dcache.WriteReq_miss_rate::.cpu.data     0.009193                       # miss rate for WriteReq accesses
system.cpu.dcache.WriteReq_miss_rate::total     0.009193                       # miss rate for WriteReq accesses
system.cpu.dcache.WriteReq_avg_miss_latency::.cpu.data 71933.361471                       # average WriteReq miss latency
system.cpu.dcache.WriteReq_avg_miss_latency::total 71933.361471                       # average WriteReq miss latency
system.cpu.dcache.WriteReq_mshr_hits::.cpu.data           14                       # number of WriteReq MSHR hits
system.cpu.dcache.WriteReq_mshr_hits::total           14                       # number of WriteReq MSHR hits
system.cpu.dcache.WriteReq_mshr_misses::.cpu.data        37682                       # number of WriteReq MSHR misses
system.cpu.dcache.WriteReq_mshr_misses::total        37682                       # number of WriteReq MSHR misses
system.cpu.dcache.WriteReq_mshr_miss_latency::.cpu.data   2673406994                       # number of WriteReq MSHR miss cycles
system.cpu.dcache.WriteReq_mshr_miss_latency::total   2673406994                       # number of WriteReq MSHR miss cycles
system.cpu.dcache.WriteReq_mshr_miss_rate::.cpu.data     0.009190                       # mshr miss rate for WriteReq accesses
system.cpu.dcache.WriteReq_mshr_miss_rate::total     0.009190                       # mshr miss rate for WriteReq accesses
system.cpu.dcache.WriteReq_avg_mshr_miss_latency::.cpu.data 70946.526034                       # average WriteReq mshr miss latency
system.cpu.dcache.WriteReq_avg_mshr_miss_latency::total 70946.526034                       # average WriteReq mshr miss latency
system.cpu.dcache.power_state.pwrStateResidencyTicks::UNDEFINED  12247924000                       # Cumulative time (in ticks) in various power states
system.cpu.dcache.tags.tagsinuse           510.550909                       # Cycle average of tags in use
system.cpu.dcache.tags.total_refs            10452460                       # Total number of references to valid blocks.
system.cpu.dcache.tags.sampled_refs             66227                       # Sample count of references to valid blocks.
system.cpu.dcache.tags.avg_refs            157.827774                       # Average number of references to valid blocks.
system.cpu.dcache.tags.warmup_cycle            163000                       # Cycle when the warmup percentage was hit.
system.cpu.dcache.tags.occ_blocks::.cpu.data   510.550909                       # Average occupied blocks per requestor
system.cpu.dcache.tags.occ_percent::.cpu.data     0.997170                       # Average percentage of cache occupancy
system.cpu.dcache.tags.occ_percent::total     0.997170                       # Average percentage of cache occupancy
system.cpu.dcache.tags.occ_task_id_blocks::1024          512                       # Occupied blocks per task id
system.cpu.dcache.tags.age_task_id_blocks_1024::0            7                       # Occupied blocks per task id
system.cpu.dcache.tags.age_task_id_blocks_1024::1           51                       # Occupied blocks per task id
system.cpu.dcache.tags.age_task_id_blocks_1024::2          224                       # Occupied blocks per task id
system.cpu.dcache.tags.age_task_id_blocks_1024::3          230                       # Occupied blocks per task id
system.cpu.dcache.tags.occ_task_id_percent::1024            1                       # Percentage of cache occupancy per task id
system.cpu.dcache.tags.tag_accesses          21074239                       # Number of tag accesses
system.cpu.dcache.tags.data_accesses         21074239                       # Number of data accesses
system.cpu.dcache.tags.power_state.pwrStateResidencyTicks::UNDEFINED  12247924000                       # Cumulative time (in ticks) in various power states
system.cpu.decode.idleCycles                  3264725                       # Number of cycles decode is idle
system.cpu.decode.blockedCycles              12667421                       # Number of cycles decode is blocked
system.cpu.decode.runCycles                   6015879                       # Number of cycles decode is running
system.cpu.decode.unblockCycles               2229611                       # Number of cycles decode is unblocking
system.cpu.decode.squashCycles                 186800                       # Number of cycles decode is squashing
system.cpu.decode.branchResolved              2718133                       # Number of times decode resolved a  branch
system.cpu.decode.branchMispred                  1462                       # Number of times decode detected a branch misprediction
system.cpu.decode.decodedInsts               59896128                       # Number of instructions handled by decode
system.cpu.decode.squashedInsts                  7170                       # Number of squashed instructions handled by decode
system.cpu.dtb.rdAccesses                     9427388                       # TLB accesses on read requests
system.cpu.dtb.wrAccesses                     4302306                       # TLB accesses on write requests
system.cpu.dtb.rdMisses                          3268                       # TLB misses on read requests
system.cpu.dtb.wrMisses                         16745                       # TLB misses on write requests
system.cpu.dtb.walker.power_state.pwrStateResidencyTicks::UNDEFINED  12247924000                       # Cumulative time (in ticks) in various power states
system.cpu.dtb_walker_cache.blocked_cycles::no_mshrs            0                       # number of cycles access was blocked
system.cpu.dtb_walker_cache.blocked_cycles::no_targets            0                       # number of cycles access was blocked
system.cpu.dtb_walker_cache.blocked::no_mshrs            0                       # number of cycles access was blocked
system.cpu.dtb_walker_cache.blocked::no_targets            0                       # number of cycles access was blocked
system.cpu.dtb_walker_cache.avg_blocked_cycles::no_mshrs          nan                       # average number of cycles each access was blocked
system.cpu.dtb_walker_cache.avg_blocked_cycles::no_targets          nan                       # average number of cycles each access was blocked
system.cpu.dtb_walker_cache.replacements            0                       # number of replacements
system.cpu.dtb_walker_cache.power_state.pwrStateResidencyTicks::UNDEFINED  12247924000                       # Cumulative time (in ticks) in various power states
system.cpu.dtb_walker_cache.tags.tagsinuse            0                       # Cycle average of tags in use
system.cpu.dtb_walker_cache.tags.total_refs            0                       # Total number of references to valid blocks.
system.cpu.dtb_walker_cache.tags.sampled_refs            0                       # Sample count of references to valid blocks.
system.cpu.dtb_walker_cache.tags.avg_refs          nan                       # Average number of references to valid blocks.
system.cpu.dtb_walker_cache.tags.warmup_cycle            0                       # Cycle when the warmup percentage was hit.
system.cpu.dtb_walker_cache.tags.tag_accesses            0                       # Number of tag accesses
system.cpu.dtb_walker_cache.tags.data_accesses            0                       # Number of data accesses
system.cpu.dtb_walker_cache.tags.power_state.pwrStateResidencyTicks::UNDEFINED  12247924000                       # Cumulative time (in ticks) in various power states
system.cpu.fetch.icacheStallCycles            3526893                       # Number of cycles fetch is stalled on an Icache miss
system.cpu.fetch.insts                       38012018                       # Number of instructions fetch has processed
system.cpu.fetch.branches                     5627037                       # Number of branches that fetch encountered
system.cpu.fetch.predictedBranches            3555538                       # Number of branches that fetch has predicted taken
system.cpu.fetch.cycles                      20640744                       # Number of cycles fetch has run and was not squashing or blocked
system.cpu.fetch.squashCycles                  376404                       # Number of cycles fetch has spent squashing
system.cpu.fetch.miscStallCycles                 1092                       # Number of cycles fetch has spent waiting on interrupts,or bad addresses, or out of MSHRs
system.cpu.fetch.pendingTrapStallCycles          7428                       # Number of stall cycles due to pending traps
system.cpu.fetch.pendingQuiesceStallCycles           26                       # Number of stall cycles due to pending quiesce instructions
system.cpu.fetch.icacheWaitRetryStallCycles           51                       # Number of stall cycles due to full MSHR
system.cpu.fetch.cacheLines                   3362009                       # Number of cache lines fetched
system.cpu.fetch.icacheSquashes                 32748                       # Number of outstanding Icache misses that were squashed
system.cpu.fetch.nisnDist::samples           24364436                       # Number of instructions fetched each cycle (Total)
system.cpu.fetch.nisnDist::mean              2.532982                       # Number of instructions fetched each cycle (Total)
system.cpu.fetch.nisnDist::stdev             3.379393                       # Number of instructions fetched each cycle (Total)
system.cpu.fetch.nisnDist::underflows               0      0.00%      0.00% # Number of instructions fetched each cycle (Total)
system.cpu.fetch.nisnDist::0                 14331982     58.82%     58.82% # Number of instructions fetched each cycle (Total)
system.cpu.fetch.nisnDist::1                   417116      1.71%     60.54% # Number of instructions fetched each cycle (Total)
system.cpu.fetch.nisnDist::2                   916541      3.76%     64.30% # Number of instructions fetched each cycle (Total)
system.cpu.fetch.nisnDist::3                   616724      2.53%     66.83% # Number of instructions fetched each cycle (Total)
system.cpu.fetch.nisnDist::4                   564608      2.32%     69.15% # Number of instructions fetched each cycle (Total)
system.cpu.fetch.nisnDist::5                   697471      2.86%     72.01% # Number of instructions fetched each cycle (Total)
system.cpu.fetch.nisnDist::6                  1179446      4.84%     76.85% # Number of instructions fetched each cycle (Total)
system.cpu.fetch.nisnDist::7                   332547      1.36%     78.21% # Number of instructions fetched each cycle (Total)
system.cpu.fetch.nisnDist::8                  5308001     21.79%    100.00% # Number of instructions fetched each cycle (Total)
system.cpu.fetch.nisnDist::overflows                0      0.00%    100.00% # Number of instructions fetched each cycle (Total)
system.cpu.fetch.nisnDist::min_value                0                       # Number of instructions fetched each cycle (Total)
system.cpu.fetch.nisnDist::max_value                8                       # Number of instructions fetched each cycle (Total)
system.cpu.fetch.nisnDist::total             24364436                       # Number of instructions fetched each cycle (Total)
system.cpu.fetch.branchRate                  0.229714                       # Number of branch fetches per cycle
system.cpu.fetch.rate                        1.551774                       # Number of inst fetches per cycle
system.cpu.icache.demand_hits::.cpu.inst      3358428                       # number of demand (read+write) hits
system.cpu.icache.demand_hits::total          3358428                       # number of demand (read+write) hits
system.cpu.icache.overall_hits::.cpu.inst      3358428                       # number of overall hits
system.cpu.icache.overall_hits::total         3358428                       # number of overall hits
system.cpu.icache.demand_misses::.cpu.inst         3580                       # number of demand (read+write) misses
system.cpu.icache.demand_misses::total           3580                       # number of demand (read+write) misses
system.cpu.icache.overall_misses::.cpu.inst         3580                       # number of overall misses
system.cpu.icache.overall_misses::total          3580                       # number of overall misses
system.cpu.icache.demand_miss_latency::.cpu.inst    209879500                       # number of demand (read+write) miss cycles
system.cpu.icache.demand_miss_latency::total    209879500                       # number of demand (read+write) miss cycles
system.cpu.icache.overall_miss_latency::.cpu.inst    209879500                       # number of overall miss cycles
system.cpu.icache.overall_miss_latency::total    209879500                       # number of overall miss cycles
system.cpu.icache.demand_accesses::.cpu.inst      3362008                       # number of demand (read+write) accesses
system.cpu.icache.demand_accesses::total      3362008                       # number of demand (read+write) accesses
system.cpu.icache.overall_accesses::.cpu.inst      3362008                       # number of overall (read+write) accesses
system.cpu.icache.overall_accesses::total      3362008                       # number of overall (read+write) accesses
system.cpu.icache.demand_miss_rate::.cpu.inst     0.001065                       # miss rate for demand accesses
system.cpu.icache.demand_miss_rate::total     0.001065                       # miss rate for demand accesses
system.cpu.icache.overall_miss_rate::.cpu.inst     0.001065                       # miss rate for overall accesses
system.cpu.icache.overall_miss_rate::total     0.001065                       # miss rate for overall accesses
system.cpu.icache.demand_avg_miss_latency::.cpu.inst 58625.558659                       # average overall miss latency
system.cpu.icache.demand_avg_miss_latency::total 58625.558659                       # average overall miss latency
system.cpu.icache.overall_avg_miss_latency::.cpu.inst 58625.558659                       # average overall miss latency
system.cpu.icache.overall_avg_miss_latency::total 58625.558659                       # average overall miss latency
system.cpu.icache.blocked_cycles::no_mshrs          996                       # number of cycles access was blocked
system.cpu.icache.blocked_cycles::no_targets            0                       # number of cycles access was blocked
system.cpu.icache.blocked::no_mshrs                14                       # number of cycles access was blocked
system.cpu.icache.blocked::no_targets               0                       # number of cycles access was blocked
system.cpu.icache.avg_blocked_cycles::no_mshrs    71.142857                       # average number of cycles each access was blocked
system.cpu.icache.avg_blocked_cycles::no_targets          nan                       # average number of cycles each access was blocked
system.cpu.icache.writebacks::.writebacks         2071                       # number of writebacks
system.cpu.icache.writebacks::total              2071                       # number of writebacks
system.cpu.icache.demand_mshr_hits::.cpu.inst          999                       # number of demand (read+write) MSHR hits
system.cpu.icache.demand_mshr_hits::total          999                       # number of demand (read+write) MSHR hits
system.cpu.icache.overall_mshr_hits::.cpu.inst          999                       # number of overall MSHR hits
system.cpu.icache.overall_mshr_hits::total          999                       # number of overall MSHR hits
system.cpu.icache.demand_mshr_misses::.cpu.inst         2581                       # number of demand (read+write) MSHR misses
system.cpu.icache.demand_mshr_misses::total         2581                       # number of demand (read+write) MSHR misses
system.cpu.icache.overall_mshr_misses::.cpu.inst         2581                       # number of overall MSHR misses
system.cpu.icache.overall_mshr_misses::total         2581                       # number of overall MSHR misses
system.cpu.icache.demand_mshr_miss_latency::.cpu.inst    160547500                       # number of demand (read+write) MSHR miss cycles
system.cpu.icache.demand_mshr_miss_latency::total    160547500                       # number of demand (read+write) MSHR miss cycles
system.cpu.icache.overall_mshr_miss_latency::.cpu.inst    160547500                       # number of overall MSHR miss cycles
system.cpu.icache.overall_mshr_miss_latency::total    160547500                       # number of overall MSHR miss cycles
system.cpu.icache.demand_mshr_miss_rate::.cpu.inst     0.000768                       # mshr miss rate for demand accesses
system.cpu.icache.demand_mshr_miss_rate::total     0.000768                       # mshr miss rate for demand accesses
system.cpu.icache.overall_mshr_miss_rate::.cpu.inst     0.000768                       # mshr miss rate for overall accesses
system.cpu.icache.overall_mshr_miss_rate::total     0.000768                       # mshr miss rate for overall accesses
system.cpu.icache.demand_avg_mshr_miss_latency::.cpu.inst 62203.603255                       # average overall mshr miss latency
system.cpu.icache.demand_avg_mshr_miss_latency::total 62203.603255                       # average overall mshr miss latency
system.cpu.icache.overall_avg_mshr_miss_latency::.cpu.inst 62203.603255                       # average overall mshr miss latency
system.cpu.icache.overall_avg_mshr_miss_latency::total 62203.603255                       # average overall mshr miss latency
system.cpu.icache.replacements                   2071                       # number of replacements
system.cpu.icache.ReadReq_hits::.cpu.inst      3358428                       # number of ReadReq hits
system.cpu.icache.ReadReq_hits::total         3358428                       # number of ReadReq hits
system.cpu.icache.ReadReq_misses::.cpu.inst         3580                       # number of ReadReq misses
system.cpu.icache.ReadReq_misses::total          3580                       # number of ReadReq misses
system.cpu.icache.ReadReq_miss_latency::.cpu.inst    209879500                       # number of ReadReq miss cycles
system.cpu.icache.ReadReq_miss_latency::total    209879500                       # number of ReadReq miss cycles
system.cpu.icache.ReadReq_accesses::.cpu.inst      3362008                       # number of ReadReq accesses(hits+misses)
system.cpu.icache.ReadReq_accesses::total      3362008                       # number of ReadReq accesses(hits+misses)
system.cpu.icache.ReadReq_miss_rate::.cpu.inst     0.001065                       # miss rate for ReadReq accesses
system.cpu.icache.ReadReq_miss_rate::total     0.001065                       # miss rate for ReadReq accesses
system.cpu.icache.ReadReq_avg_miss_latency::.cpu.inst 58625.558659                       # average ReadReq miss latency
system.cpu.icache.ReadReq_avg_miss_latency::total 58625.558659                       # average ReadReq miss latency
system.cpu.icache.ReadReq_mshr_hits::.cpu.inst          999                       # number of ReadReq MSHR hits
system.cpu.icache.ReadReq_mshr_hits::total          999                       # number of ReadReq MSHR hits
system.cpu.icache.ReadReq_mshr_misses::.cpu.inst         2581                       # number of ReadReq MSHR misses
system.cpu.icache.ReadReq_mshr_misses::total         2581                       # number of ReadReq MSHR misses
system.cpu.icache.ReadReq_mshr_miss_latency::.cpu.inst    160547500                       # number of ReadReq MSHR miss cycles
system.cpu.icache.ReadReq_mshr_miss_latency::total    160547500                       # number of ReadReq MSHR miss cycles
system.cpu.icache.ReadReq_mshr_miss_rate::.cpu.inst     0.000768                       # mshr miss rate for ReadReq accesses
system.cpu.icache.ReadReq_mshr_miss_rate::total     0.000768                       # mshr miss rate for ReadReq accesses
system.cpu.icache.ReadReq_avg_mshr_miss_latency::.cpu.inst 62203.603255                       # average ReadReq mshr miss latency
system.cpu.icache.ReadReq_avg_mshr_miss_latency::total 62203.603255                       # average ReadReq mshr miss latency
system.cpu.icache.power_state.pwrStateResidencyTicks::UNDEFINED  12247924000                       # Cumulative time (in ticks) in various power states
system.cpu.icache.tags.tagsinuse           506.423042                       # Cycle average of tags in use
system.cpu.icache.tags.total_refs             3361009                       # Total number of references to valid blocks.
system.cpu.icache.tags.sampled_refs              2581                       # Sample count of references to valid blocks.
system.cpu.icache.tags.avg_refs           1302.211933                       # Average number of references to valid blocks.
system.cpu.icache.tags.warmup_cycle             79500                       # Cycle when the warmup percentage was hit.
system.cpu.icache.tags.occ_blocks::.cpu.inst   506.423042                       # Average occupied blocks per requestor
system.cpu.icache.tags.occ_percent::.cpu.inst     0.989108                       # Average percentage of cache occupancy
system.cpu.icache.tags.occ_percent::total     0.989108                       # Average percentage of cache occupancy
system.cpu.icache.tags.occ_task_id_blocks::1024          510                       # Occupied blocks per task id
system.cpu.icache.tags.age_task_id_blocks_1024::3           77                       # Occupied blocks per task id
system.cpu.icache.tags.age_task_id_blocks_1024::4          433                       # Occupied blocks per task id
system.cpu.icache.tags.occ_task_id_percent::1024     0.996094                       # Percentage of cache occupancy per task id
system.cpu.icache.tags.tag_accesses           6726597                       # Number of tag accesses
system.cpu.icache.tags.data_accesses          6726597                       # Number of data accesses
system.cpu.icache.tags.power_state.pwrStateResidencyTicks::UNDEFINED  12247924000                       # Cumulative time (in ticks) in various power states
system.cpu.interrupts.clk_domain.clock           8000                       # Clock period in ticks
system.cpu.itb.rdAccesses                           0                       # TLB accesses on read requests
system.cpu.itb.wrAccesses                     3363278                       # TLB accesses on write requests
system.cpu.itb.rdMisses                             0                       # TLB misses on read requests
system.cpu.itb.wrMisses                          1600                       # TLB misses on write requests
system.cpu.itb.walker.power_state.pwrStateResidencyTicks::UNDEFINED  12247924000                       # Cumulative time (in ticks) in various power states
system.cpu.itb_walker_cache.blocked_cycles::no_mshrs            0                       # number of cycles access was blocked
system.cpu.itb_walker_cache.blocked_cycles::no_targets            0                       # number of cycles access was blocked
system.cpu.itb_walker_cache.blocked::no_mshrs            0                       # number of cycles access was blocked
system.cpu.itb_walker_cache.blocked::no_targets            0                       # number of cycles access was blocked
system.cpu.itb_walker_cache.avg_blocked_cycles::no_mshrs          nan                       # average number of cycles each access was blocked
system.cpu.itb_walker_cache.avg_blocked_cycles::no_targets          nan                       # average number of cycles each access was blocked
system.cpu.itb_walker_cache.replacements            0                       # number of replacements
system.cpu.itb_walker_cache.power_state.pwrStateResidencyTicks::UNDEFINED  12247924000                       # Cumulative time (in ticks) in various power states
system.cpu.itb_walker_cache.tags.tagsinuse            0                       # Cycle average of tags in use
system.cpu.itb_walker_cache.tags.total_refs            0                       # Total number of references to valid blocks.
system.cpu.itb_walker_cache.tags.sampled_refs            0                       # Sample count of references to valid blocks.
system.cpu.itb_walker_cache.tags.avg_refs          nan                       # Average number of references to valid blocks.
system.cpu.itb_walker_cache.tags.warmup_cycle            0                       # Cycle when the warmup percentage was hit.
system.cpu.itb_walker_cache.tags.tag_accesses            0                       # Number of tag accesses
system.cpu.itb_walker_cache.tags.data_accesses            0                       # Number of data accesses
system.cpu.itb_walker_cache.tags.power_state.pwrStateResidencyTicks::UNDEFINED  12247924000                       # Cumulative time (in ticks) in various power states
system.cpu.lsq0.forwLoads                     3021869                       # Number of loads that had data forwarded from stores
system.cpu.lsq0.squashedLoads                 1666766                       # Number of loads squashed
system.cpu.lsq0.ignoredResponses                32001                       # Number of memory responses ignored because the instruction is squashed
system.cpu.lsq0.memOrderViolation                 684                       # Number of memory ordering violations
system.cpu.lsq0.squashedStores                 296297                       # Number of stores squashed
system.cpu.lsq0.rescheduledLoads                    7                       # Number of loads that were rescheduled
system.cpu.lsq0.blockedByCache                    656                       # Number of times an access to memory failed due to the cache being blocked
system.cpu.power_state.pwrStateResidencyTicks::ON  12247924000                       # Cumulative time (in ticks) in various power states
system.cpu.rename.squashCycles                 186800                       # Number of cycles rename is squashing
system.cpu.rename.idleCycles                  4196605                       # Number of cycles rename is idle
system.cpu.rename.blockCycles                 4544409                       # Number of cycles rename is blocking
system.cpu.rename.serializeStallCycles          13454                       # count of cycles rename stalledfor serializing inst
system.cpu.rename.runCycles                   7267666                       # Number of cycles rename is running
system.cpu.rename.unblockCycles               8155502                       # Number of cycles rename is unblocking
system.cpu.rename.renamedInsts               58853914                       # Number of instructions processed by rename
system.cpu.rename.ROBFullEvents                 12163                       # Number of times rename has blocked due to ROB full
system.cpu.rename.IQFullEvents                2233312                       # Number of times rename has blocked due to IQ full
system.cpu.rename.LQFullEvents                2798988                       # Number of times rename has blocked due to LQ full
system.cpu.rename.SQFullEvents                3221595                       # Number of times rename has blocked due to SQ full
system.cpu.rename.fullRegistersEvents              49                       # Number of times there has been no free registers
system.cpu.rename.renamedOperands            77273191                       # Number of destination operands rename has renamed
system.cpu.rename.lookups                   160320557                       # Number of register rename lookups that rename has made
system.cpu.rename.intLookups                 99053047                       # Number of integer rename lookups
system.cpu.rename.fpLookups                   2598503                       # Number of floating rename lookups
system.cpu.rename.committedMaps              63631519                       # Number of HB maps that are committed
system.cpu.rename.undoneMaps                 13641593                       # Number of HB maps that are undone due to squashing
system.cpu.rename.serializing                     765                       # count of serializing insts renamed
system.cpu.rename.tempSerializing                 720                       # count of temporary serializing insts renamed
system.cpu.rename.skidInsts                  11218613                       # count of insts added to the skid buffer
system.cpu.rob.reads                         78033384                       # The number of ROB reads
system.cpu.rob.writes                       115515133                       # The number of ROB writes
system.cpu.thread_0.numInsts                 30000000                       # Number of Instructions committed
system.cpu.thread_0.numOps                   46857538                       # Number of Ops committed
system.cpu.thread_0.numMemRefs                      0                       # Number of Memory References
system.cpu_clk_domain.clock                       500                       # Clock period in ticks
system.cpu_voltage_domain.voltage                   1                       # Voltage in Volts
system.l2.demand_hits::.cpu.inst                  472                       # number of demand (read+write) hits
system.l2.demand_hits::.cpu.data                20617                       # number of demand (read+write) hits
system.l2.demand_hits::total                    21089                       # number of demand (read+write) hits
system.l2.overall_hits::.cpu.inst                 472                       # number of overall hits
system.l2.overall_hits::.cpu.data               20617                       # number of overall hits
system.l2.overall_hits::total                   21089                       # number of overall hits
system.l2.demand_misses::.cpu.inst               2106                       # number of demand (read+write) misses
system.l2.demand_misses::.cpu.data              45610                       # number of demand (read+write) misses
system.l2.demand_misses::total                  47716                       # number of demand (read+write) misses
system.l2.overall_misses::.cpu.inst              2106                       # number of overall misses
system.l2.overall_misses::.cpu.data             45610                       # number of overall misses
system.l2.overall_misses::total                 47716                       # number of overall misses
system.l2.demand_miss_latency::.cpu.inst    151549500                       # number of demand (read+write) miss cycles
system.l2.demand_miss_latency::.cpu.data   3280665000                       # number of demand (read+write) miss cycles
system.l2.demand_miss_latency::total       3432214500                       # number of demand (read+write) miss cycles
system.l2.overall_miss_latency::.cpu.inst    151549500                       # number of overall miss cycles
system.l2.overall_miss_latency::.cpu.data   3280665000                       # number of overall miss cycles
system.l2.overall_miss_latency::total      3432214500                       # number of overall miss cycles
system.l2.demand_accesses::.cpu.inst             2578                       # number of demand (read+write) accesses
system.l2.demand_accesses::.cpu.data            66227                       # number of demand (read+write) accesses
system.l2.demand_accesses::total                68805                       # number of demand (read+write) accesses
system.l2.overall_accesses::.cpu.inst            2578                       # number of overall (read+write) accesses
system.l2.overall_accesses::.cpu.data           66227                       # number of overall (read+write) accesses
system.l2.overall_accesses::total               68805                       # number of overall (read+write) accesses
system.l2.demand_miss_rate::.cpu.inst        0.816912                       # miss rate for demand accesses
system.l2.demand_miss_rate::.cpu.data        0.688692                       # miss rate for demand accesses
system.l2.demand_miss_rate::total            0.693496                       # miss rate for demand accesses
system.l2.overall_miss_rate::.cpu.inst       0.816912                       # miss rate for overall accesses
system.l2.overall_miss_rate::.cpu.data       0.688692                       # miss rate for overall accesses
system.l2.overall_miss_rate::total           0.693496                       # miss rate for overall accesses
system.l2.demand_avg_miss_latency::.cpu.inst 71960.826211                       # average overall miss latency
system.l2.demand_avg_miss_latency::.cpu.data 71928.634071                       # average overall miss latency
system.l2.demand_avg_miss_latency::total 71930.054908                       # average overall miss latency
system.l2.overall_avg_miss_latency::.cpu.inst 71960.826211                       # average overall miss latency
system.l2.overall_avg_miss_latency::.cpu.data 71928.634071                       # average overall miss latency
[...]
system.mem_ctrls.dram.bw_total::.cpu.data    238329369                       # Total bandwidth to/from this memory (bytes/s)
system.mem_ctrls.dram.bw_total::total       400504118                       # Total bandwidth to/from this memory (bytes/s)
system.mem_ctrls.dram.readBursts                47708                       # Number of DRAM read bursts
system.mem_ctrls.dram.writeBursts               28914                       # Number of DRAM write bursts
system.mem_ctrls.dram.perBankRdBursts::0         3359                       # Per bank write bursts
system.mem_ctrls.dram.perBankRdBursts::1         3414                       # Per bank write bursts
system.mem_ctrls.dram.perBankRdBursts::2         3245                       # Per bank write bursts
system.mem_ctrls.dram.perBankRdBursts::3         3082                       # Per bank write bursts
system.mem_ctrls.dram.perBankRdBursts::4         2975                       # Per bank write bursts
system.mem_ctrls.dram.perBankRdBursts::5         3062                       # Per bank write bursts
system.mem_ctrls.dram.perBankRdBursts::6         3065                       # Per bank write bursts
system.mem_ctrls.dram.perBankRdBursts::7         2849                       # Per bank write bursts
system.mem_ctrls.dram.perBankRdBursts::8         2916                       # Per bank write bursts
system.mem_ctrls.dram.perBankRdBursts::9         2797                       # Per bank write bursts
system.mem_ctrls.dram.perBankRdBursts::10         2898                       # Per bank write bursts
system.mem_ctrls.dram.perBankRdBursts::11         2879                       # Per bank write bursts
system.mem_ctrls.dram.perBankRdBursts::12         2912                       # Per bank write bursts
system.mem_ctrls.dram.perBankRdBursts::13         2714                       # Per bank write bursts
system.mem_ctrls.dram.perBankRdBursts::14         2862                       # Per bank write bursts
system.mem_ctrls.dram.perBankRdBursts::15         2679                       # Per bank write bursts
system.mem_ctrls.dram.perBankWrBursts::0         1897                       # Per bank write bursts
system.mem_ctrls.dram.perBankWrBursts::1         2161                       # Per bank write bursts
system.mem_ctrls.dram.perBankWrBursts::2         2004                       # Per bank write bursts
system.mem_ctrls.dram.perBankWrBursts::3         1879                       # Per bank write bursts
system.mem_ctrls.dram.perBankWrBursts::4         1822                       # Per bank write bursts
system.mem_ctrls.dram.perBankWrBursts::5         1639                       # Per bank write bursts
system.mem_ctrls.dram.perBankWrBursts::6         1732                       # Per bank write bursts
system.mem_ctrls.dram.perBankWrBursts::7         1721                       # Per bank write bursts
system.mem_ctrls.dram.perBankWrBursts::8         1857                       # Per bank write bursts
system.mem_ctrls.dram.perBankWrBursts::9         1888                       # Per bank write bursts
system.mem_ctrls.dram.perBankWrBursts::10         1932                       # Per bank write bursts
system.mem_ctrls.dram.perBankWrBursts::11         1733                       # Per bank write bursts
system.mem_ctrls.dram.perBankWrBursts::12         1807                       # Per bank write bursts
system.mem_ctrls.dram.perBankWrBursts::13         1661                       # Per bank write bursts
system.mem_ctrls.dram.perBankWrBursts::14         1679                       # Per bank write bursts
system.mem_ctrls.dram.perBankWrBursts::15         1502                       # Per bank write bursts
system.mem_ctrls.dram.totQLat               475208250                       # Total ticks spent queuing
system.mem_ctrls.dram.totBusLat             238540000                       # Total ticks spent in databus transfers
system.mem_ctrls.dram.totMemAccLat         1369733250                       # Total ticks spent from burst creation until serviced by the DRAM
system.mem_ctrls.dram.avgQLat                 9960.77                       # Average queueing delay per DRAM burst
system.mem_ctrls.dram.avgBusLat               5000.00                       # Average bus latency per DRAM burst
system.mem_ctrls.dram.avgMemAccLat           28710.77                       # Average memory access latency per DRAM burst
system.mem_ctrls.dram.readRowHits               40073                       # Number of row buffer hits during reads
system.mem_ctrls.dram.writeRowHits              26250                       # Number of row buffer hits during writes
system.mem_ctrls.dram.readRowHitRate            84.00                       # Row buffer hit rate for reads
system.mem_ctrls.dram.writeRowHitRate           90.79                       # Row buffer hit rate for writes
system.mem_ctrls.dram.bytesPerActivate::samples        10299                       # Bytes accessed per row activation
system.mem_ctrls.dram.bytesPerActivate::mean   476.144092                       # Bytes accessed per row activation
system.mem_ctrls.dram.bytesPerActivate::gmean   265.189442                       # Bytes accessed per row activation
system.mem_ctrls.dram.bytesPerActivate::stdev   419.442554                       # Bytes accessed per row activation
system.mem_ctrls.dram.bytesPerActivate::0-127         3360     32.62%     32.62% # Bytes accessed per row activation
system.mem_ctrls.dram.bytesPerActivate::128-255         1553     15.08%     47.70% # Bytes accessed per row activation
system.mem_ctrls.dram.bytesPerActivate::256-383          613      5.95%     53.66% # Bytes accessed per row activation
system.mem_ctrls.dram.bytesPerActivate::384-511          417      4.05%     57.70% # Bytes accessed per row activation
system.mem_ctrls.dram.bytesPerActivate::512-639          329      3.19%     60.90% # Bytes accessed per row activation
system.mem_ctrls.dram.bytesPerActivate::640-767          277      2.69%     63.59% # Bytes accessed per row activation
system.mem_ctrls.dram.bytesPerActivate::768-895          274      2.66%     66.25% # Bytes accessed per row activation
system.mem_ctrls.dram.bytesPerActivate::896-1023          353      3.43%     69.68% # Bytes accessed per row activation
system.mem_ctrls.dram.bytesPerActivate::1024-1151         3123     30.32%    100.00% # Bytes accessed per row activation
system.mem_ctrls.dram.bytesPerActivate::total        10299                       # Bytes accessed per row activation
system.mem_ctrls.dram.bytesRead               3053312                       # Total number of bytes read from DRAM
system.mem_ctrls.dram.bytesWritten            1850496                       # Total number of bytes written to DRAM
system.mem_ctrls.dram.avgRdBW              249.292207                       # Average DRAM read bandwidth in MiBytes/s
system.mem_ctrls.dram.avgWrBW              151.086502                       # Average DRAM write bandwidth in MiBytes/s
system.mem_ctrls.dram.peakBW                 12800.00                       # Theoretical peak bandwidth in MiByte/s
system.mem_ctrls.dram.busUtil                    3.13                       # Data bus utilization in percentage
system.mem_ctrls.dram.busUtilRead                1.95                       # Data bus utilization in percentage for reads
system.mem_ctrls.dram.busUtilWrite               1.18                       # Data bus utilization in percentage for writes
system.mem_ctrls.dram.pageHitRate               86.56                       # Row buffer hit rate, read and write combined
system.mem_ctrls.dram.power_state.pwrStateResidencyTicks::UNDEFINED  12247924000                       # Cumulative time (in ticks) in various power states
system.mem_ctrls.dram.rank0.actEnergy        40662300                       # Energy for activate commands per rank (pJ)
system.mem_ctrls.dram.rank0.preEnergy        21612525                       # Energy for precharge commands per rank (pJ)
system.mem_ctrls.dram.rank0.readEnergy      178864140                       # Energy for read commands per rank (pJ)
system.mem_ctrls.dram.rank0.writeEnergy      77543100                       # Energy for write commands per rank (pJ)
system.mem_ctrls.dram.rank0.refreshEnergy 966828720.000000                       # Energy for refresh commands per rank (pJ)
system.mem_ctrls.dram.rank0.actBackEnergy   2262465660                       # Energy for active background per rank (pJ)
system.mem_ctrls.dram.rank0.preBackEnergy   2798004480                       # Energy for precharge background per rank (pJ)
system.mem_ctrls.dram.rank0.actPowerDownEnergy            0                       # Energy for active power-down per rank (pJ)
system.mem_ctrls.dram.rank0.prePowerDownEnergy            0                       # Energy for precharge power-down per rank (pJ)
system.mem_ctrls.dram.rank0.selfRefreshEnergy            0                       # Energy for self refresh per rank (pJ)
system.mem_ctrls.dram.rank0.totalEnergy    6345980925                       # Total energy per rank (pJ)
system.mem_ctrls.dram.rank0.averagePower   518.127066                       # Core power per rank (mW)
system.mem_ctrls.dram.rank0.totalIdleTime            0                       # Total Idle time Per DRAM Rank
system.mem_ctrls.dram.rank0.pwrStateTime::IDLE   7234405250                       # Time in different power states
system.mem_ctrls.dram.rank0.pwrStateTime::REF    408872750                       # Time in different power states
system.mem_ctrls.dram.rank0.pwrStateTime::SREF            0                       # Time in different power states
system.mem_ctrls.dram.rank0.pwrStateTime::PRE_PDN            0                       # Time in different power states
system.mem_ctrls.dram.rank0.pwrStateTime::ACT   4604646000                       # Time in different power states
system.mem_ctrls.dram.rank0.pwrStateTime::ACT_PDN            0                       # Time in different power states
system.mem_ctrls.dram.rank1.actEnergy        32872560                       # Energy for activate commands per rank (pJ)
system.mem_ctrls.dram.rank1.preEnergy        17472180                       # Energy for precharge commands per rank (pJ)
system.mem_ctrls.dram.rank1.readEnergy      161770980                       # Energy for read commands per rank (pJ)
system.mem_ctrls.dram.rank1.writeEnergy      73387980                       # Energy for write commands per rank (pJ)
system.mem_ctrls.dram.rank1.refreshEnergy 966828720.000000                       # Energy for refresh commands per rank (pJ)
system.mem_ctrls.dram.rank1.actBackEnergy   1688087490                       # Energy for active background per rank (pJ)
system.mem_ctrls.dram.rank1.preBackEnergy   3281691360                       # Energy for precharge background per rank (pJ)
system.mem_ctrls.dram.rank1.actPowerDownEnergy            0                       # Energy for active power-down per rank (pJ)
system.mem_ctrls.dram.rank1.prePowerDownEnergy            0                       # Energy for precharge power-down per rank (pJ)
system.mem_ctrls.dram.rank1.selfRefreshEnergy            0                       # Energy for self refresh per rank (pJ)
system.mem_ctrls.dram.rank1.totalEnergy    6222111270                       # Total energy per rank (pJ)
system.mem_ctrls.dram.rank1.averagePower   508.013543                       # Core power per rank (mW)
system.mem_ctrls.dram.rank1.totalIdleTime            0                       # Total Idle time Per DRAM Rank
system.mem_ctrls.dram.rank1.pwrStateTime::IDLE   8502510750                       # Time in different power states
system.mem_ctrls.dram.rank1.pwrStateTime::REF    408872750                       # Time in different power states
system.mem_ctrls.dram.rank1.pwrStateTime::SREF            0                       # Time in different power states
system.mem_ctrls.dram.rank1.pwrStateTime::PRE_PDN            0                       # Time in different power states
system.mem_ctrls.dram.rank1.pwrStateTime::ACT   3336540500                       # Time in different power states
system.mem_ctrls.dram.rank1.pwrStateTime::ACT_PDN            0                       # Time in different power states
system.mem_ctrls.power_state.pwrStateResidencyTicks::UNDEFINED  12247924000                       # Cumulative time (in ticks) in various power states
system.membus.trans_dist::ReadResp              11246                       # Transaction distribution
system.membus.trans_dist::WritebackDirty        28931                       # Transaction distribution
system.membus.trans_dist::CleanEvict            10152                       # Transaction distribution
system.membus.trans_dist::ReadExReq             36469                       # Transaction distribution
system.membus.trans_dist::ReadExResp            36469                       # Transaction distribution
system.membus.trans_dist::ReadSharedReq         11246                       # Transaction distribution
system.membus.pkt_count_system.l2.mem_side_port::system.mem_ctrls.port       134513                       # Packet count per connected requestor and responder (bytes)
system.membus.pkt_count_system.l2.mem_side_port::total       134513                       # Packet count per connected requestor and responder (bytes)
system.membus.pkt_count::total                 134513                       # Packet count per connected requestor and responder (bytes)
system.membus.pkt_size_system.l2.mem_side_port::system.mem_ctrls.port      4905344                       # Cumulative packet size per connected requestor and responder (bytes)
system.membus.pkt_size_system.l2.mem_side_port::total      4905344                       # Cumulative packet size per connected requestor and responder (bytes)
system.membus.pkt_size::total                 4905344                       # Cumulative packet size per connected requestor and responder (bytes)
system.membus.snoops                                0                       # Total snoops (count)
system.membus.snoopTraffic                          0                       # Total snoop traffic (bytes)
system.membus.snoop_fanout::samples             47715                       # Request fanout histogram
system.membus.snoop_fanout::mean                    0                       # Request fanout histogram
system.membus.snoop_fanout::stdev                   0                       # Request fanout histogram
system.membus.snoop_fanout::underflows              0      0.00%      0.00% # Request fanout histogram
system.membus.snoop_fanout::0                   47715    100.00%    100.00% # Request fanout histogram
system.membus.snoop_fanout::1                       0      0.00%    100.00% # Request fanout histogram
system.membus.snoop_fanout::overflows               0      0.00%    100.00% # Request fanout histogram
system.membus.snoop_fanout::min_value               0                       # Request fanout histogram
system.membus.snoop_fanout::max_value               0                       # Request fanout histogram
system.membus.snoop_fanout::total               47715                       # Request fanout histogram
system.membus.power_state.pwrStateResidencyTicks::UNDEFINED  12247924000                       # Cumulative time (in ticks) in various power states
system.membus.reqLayer2.occupancy            50630500                       # Layer occupancy (ticks)
system.membus.reqLayer2.utilization               0.4                       # Layer utilization (%)
system.membus.respLayer1.occupancy           59643750                       # Layer occupancy (ticks)
system.membus.respLayer1.utilization              0.5                       # Layer utilization (%)
system.tol2bus.trans_dist::ReadResp             31125                       # Transaction distribution
system.tol2bus.trans_dist::WritebackDirty        78610                       # Transaction distribution
system.tol2bus.trans_dist::WritebackClean         2071                       # Transaction distribution
system.tol2bus.trans_dist::CleanEvict           27065                       # Transaction distribution
system.tol2bus.trans_dist::ReadExReq            37683                       # Transaction distribution
system.tol2bus.trans_dist::ReadExResp           37683                       # Transaction distribution
system.tol2bus.trans_dist::ReadCleanReq          2581                       # Transaction distribution
system.tol2bus.trans_dist::ReadSharedReq        28544                       # Transaction distribution
system.tol2bus.pkt_count_system.cpu.icache.mem_side_port::system.l2.cpu_side_port         7230                       # Packet count per connected requestor and responder (bytes)
system.tol2bus.pkt_count_system.cpu.dcache.mem_side_port::system.l2.cpu_side_port       198169                       # Packet count per connected requestor and responder (bytes)
system.tol2bus.pkt_count::total                205399                       # Packet count per connected requestor and responder (bytes)
system.tol2bus.pkt_size_system.cpu.icache.mem_side_port::system.l2.cpu_side_port       297536                       # Cumulative packet size per connected requestor and responder (bytes)
system.tol2bus.pkt_size_system.cpu.dcache.mem_side_port::system.l2.cpu_side_port      7417984                       # Cumulative packet size per connected requestor and responder (bytes)
system.tol2bus.pkt_size::total                7715520                       # Cumulative packet size per connected requestor and responder (bytes)
system.tol2bus.snoops                           39963                       # Total snoops (count)
system.tol2bus.snoopTraffic                   1851776                       # Total snoop traffic (bytes)
system.tol2bus.snoop_fanout::samples           108768                       # Request fanout histogram
system.tol2bus.snoop_fanout::mean            0.008302                       # Request fanout histogram
system.tol2bus.snoop_fanout::stdev           0.090737                       # Request fanout histogram
system.tol2bus.snoop_fanout::underflows             0      0.00%      0.00% # Request fanout histogram
system.tol2bus.snoop_fanout::0                 107865     99.17%     99.17% # Request fanout histogram
system.tol2bus.snoop_fanout::1                    903      0.83%    100.00% # Request fanout histogram
system.tol2bus.snoop_fanout::2                      0      0.00%    100.00% # Request fanout histogram
system.tol2bus.snoop_fanout::3                      0      0.00%    100.00% # Request fanout histogram
system.tol2bus.snoop_fanout::4                      0      0.00%    100.00% # Request fanout histogram
system.tol2bus.snoop_fanout::overflows              0      0.00%    100.00% # Request fanout histogram
system.tol2bus.snoop_fanout::min_value              0                       # Request fanout histogram
system.tol2bus.snoop_fanout::max_value              1                       # Request fanout histogram
system.tol2bus.snoop_fanout::total             108768                       # Request fanout histogram
system.tol2bus.power_state.pwrStateResidencyTicks::UNDEFINED  12247924000                       # Cumulative time (in ticks) in various power states
system.tol2bus.reqLayer0.occupancy          120047000                       # Layer occupancy (ticks)
system.tol2bus.reqLayer0.utilization              1.0                       # Layer utilization (%)
system.tol2bus.respLayer0.occupancy           3872997                       # Layer occupancy (ticks)
system.tol2bus.respLayer0.utilization             0.0                       # Layer utilization (%)
system.tol2bus.respLayer1.occupancy          99340999                       # Layer occupancy (ticks)
system.tol2bus.respLayer1.utilization             0.8                       # Layer utilization (%)
system.voltage_domain.voltage                       1                       # Voltage in Volts

---------- End Simulation Statistics   ----------
